!B3LYP EPR-III Autoaux
!PAL4

* xyz 0 2
 C    -26.2006935152    -44.5345491158    -17.1590925432
 H    -27.2994279490    -44.6007267132    -17.2677915437
 H    -25.3933927711    -45.2693411890    -17.3363411398
 H    -25.8262412186    -43.5592424189    -16.8230978753
*

%EPRNMR
        GTENSOR   TRUE
        NUCLEI    = ALL H {AISO, ADIP, AORB}
        NUCLEI    = ALL C {AISO, ADIP, AORB}
END

