!B3LYP EPR-III Autoaux
!PAL4

* xyz 0 2
 C     -4.0582964628    -19.5534262179    -11.4358350665
 H     -4.7681588883    -19.2978847385    -10.5280507995
 H     -4.1965534088    -20.3414240646    -12.1481602640
 H     -3.2989909267    -18.8032795704    -11.6778922163
*

%EPRNMR
        GTENSOR   TRUE
        NUCLEI    = ALL H {AISO, ADIP, AORB}
        NUCLEI    = ALL C {AISO, ADIP, AORB}
END

