!B3LYP EPR-III Autoaux
!PAL4

* xyz 0 2
 C    -73.6244951112    -98.6298446209    -28.8449518909
 H    -73.9193450734    -97.5808774030    -28.7711437323
 H    -74.5417312498    -99.3502002425    -28.9604764250
 H    -72.5733527386    -98.7590233660    -28.8295546667
*

%EPRNMR
        GTENSOR   TRUE
        NUCLEI    = ALL H {AISO, ADIP, AORB}
        NUCLEI    = ALL C {AISO, ADIP, AORB}
END

