!B3LYP EPR-III Autoaux
!PAL4

* xyz 0 2
 C      7.6529048367     -6.2198039105     -8.4056689454
 H      7.3307081213     -5.7069812659     -7.3970284841
 H      6.8173916452     -6.1529285193     -9.0665746585
 H      8.6534926273     -6.5139584155     -8.7673404258
*

%EPRNMR
        GTENSOR   TRUE
        NUCLEI    = ALL H {AISO, ADIP, AORB}
        NUCLEI    = ALL C {AISO, ADIP, AORB}
END

