!B3LYP EPR-III Autoaux
!PAL4

* xyz 0 2
 C    -92.4225663695   -121.8198890767    -33.1339957331
 H    -92.0196631704   -122.8135881252    -33.1879530491
 H    -91.8113523972   -120.9193666169    -33.0206681122
 H    -93.5519636325   -121.7148394580    -33.1792953914
*

%EPRNMR
        GTENSOR   TRUE
        NUCLEI    = ALL H {AISO, ADIP, AORB}
        NUCLEI    = ALL C {AISO, ADIP, AORB}
END

