!B3LYP EPR-III Autoaux
!PAL4

* xyz 0 2
 C    -31.1851281776    -50.1628076747    -18.4252499657
 H    -31.6348645624    -49.2193575380    -18.5088336406
 H    -31.9385846749    -50.9226995565    -18.3407986266
 H    -30.1235495040    -50.2347962872    -18.4092917799
*

%EPRNMR
        GTENSOR   TRUE
        NUCLEI    = ALL H {AISO, ADIP, AORB}
        NUCLEI    = ALL C {AISO, ADIP, AORB}
END

