!B3LYP EPR-III Autoaux
!PAL4

* xyz 0 2
 C    -14.5626949357    -31.4383915307    -14.1651646542
 H    -15.2305064292    -30.5861319994    -14.0086557314
 H    -14.8251968825    -32.3020952042    -14.7276342884
 H    -13.6450176966    -31.5079164310    -13.6607200071
*

%EPRNMR
        GTENSOR   TRUE
        NUCLEI    = ALL H {AISO, ADIP, AORB}
        NUCLEI    = ALL C {AISO, ADIP, AORB}
END

