!B3LYP EPR-III Autoaux
!PAL4

* xyz 0 2
 C    -38.7797521540    -58.6610250530    -20.3398367406
 H    -39.8485940654    -58.2529900145    -20.3402100255
 H    -38.5243552363    -59.6717513035    -20.4371303038
 H    -37.8831180782    -58.0318190262    -20.1495940762
*

%EPRNMR
        GTENSOR   TRUE
        NUCLEI    = ALL H {AISO, ADIP, AORB}
        NUCLEI    = ALL C {AISO, ADIP, AORB}
END

