!B3LYP EPR-III Autoaux
!PAL4

* xyz 0 2
 C     -2.0107806677    -17.1937170174    -10.9031883417
 H     -2.2415850621    -17.9136482986    -11.6001921354
 H     -1.0252292486    -16.6570394371    -11.1234657066
 H     -2.6007518175    -16.9580832717    -10.0483588825
*

%EPRNMR
        GTENSOR   TRUE
        NUCLEI    = ALL H {AISO, ADIP, AORB}
        NUCLEI    = ALL C {AISO, ADIP, AORB}
END

