!B3LYP EPR-III Autoaux
!PAL4

* xyz 0 2
 C    -78.8209120804   -104.9074732460    -30.0803518683
 H    -77.7040367609   -104.9888076099    -30.0773870058
 H    -79.2458663901   -103.8767136865    -30.0150242941
 H    -79.2168051265   -105.9844080974    -30.1974683290
*

%EPRNMR
        GTENSOR   TRUE
        NUCLEI    = ALL H {AISO, ADIP, AORB}
        NUCLEI    = ALL C {AISO, ADIP, AORB}
END

