!B3LYP EPR-III Autoaux
!PAL4

* xyz 0 2
 C     -8.4306930268    -24.5071240290    -12.5831460594
 H     -8.5062787153    -25.4814403348    -12.8433182616
 H     -7.7151516209    -23.7602411041    -13.0363950916
 H     -8.9700047868    -24.0738393094    -11.7394407650
*

%EPRNMR
        GTENSOR   TRUE
        NUCLEI    = ALL H {AISO, ADIP, AORB}
        NUCLEI    = ALL C {AISO, ADIP, AORB}
END

