!B3LYP EPR-III Autoaux
!PAL4

* xyz 0 2
 C    -33.8549744518    -53.1590631977    -19.0965904708
 H    -34.1049653506    -54.1498026566    -19.0289410547
 H    -32.8474199649    -52.6983084475    -19.2302396551
 H    -34.5825190976    -52.3987494584    -18.9446465704
*

%EPRNMR
        GTENSOR   TRUE
        NUCLEI    = ALL H {AISO, ADIP, AORB}
        NUCLEI    = ALL C {AISO, ADIP, AORB}
END

