!B3LYP EPR-III Autoaux
!PAL4

* xyz 0 2
 C      8.0715353082     -5.7244491032     -8.2989223831
 H      8.7610219568     -5.5352898569     -7.6168983837
 H      7.7915598127     -5.0601277334     -9.1293959501
 H      7.5349222173     -6.6184860654     -8.1425239102
*

%EPRNMR
        GTENSOR   TRUE
        NUCLEI    = ALL H {AISO, ADIP, AORB}
        NUCLEI    = ALL C {AISO, ADIP, AORB}
END

