!B3LYP EPR-III Autoaux
!PAL4

* xyz 0 2
 C      8.9047004493     -4.7861085259     -8.0735732962
 H      7.8199050931     -4.6723134084     -8.2423414481
 H      9.4800167783     -4.9975811885     -8.9629408946
 H      9.4170778608     -4.5191234336     -7.1567789391
*

%EPRNMR
        GTENSOR   TRUE
        NUCLEI    = ALL H {AISO, ADIP, AORB}
        NUCLEI    = ALL C {AISO, ADIP, AORB}
END

