!B3LYP EPR-III Autoaux
!PAL4

* xyz 0 2
 C    -15.3253075146    -32.3243269707    -14.3582870854
 H    -16.3882640696    -32.5207439703    -13.8913914441
 H    -14.7662298836    -32.8556437081    -15.0749733457
 H    -15.0065103407    -31.3439446844    -14.1246167444
*

%EPRNMR
        GTENSOR   TRUE
        NUCLEI    = ALL H {AISO, ADIP, AORB}
        NUCLEI    = ALL C {AISO, ADIP, AORB}
END

