!B3LYP EPR-III Autoaux
!PAL4

* xyz 0 2
 C    -19.0504244568    -36.4495238265    -15.3109310925
 H    -19.3349679747    -35.4173475431    -15.6902511029
 H    -19.6778797869    -37.3002677993    -15.1503423509
 H    -17.9999811132    -36.5797202966    -15.1245189375
*

%EPRNMR
        GTENSOR   TRUE
        NUCLEI    = ALL H {AISO, ADIP, AORB}
        NUCLEI    = ALL C {AISO, ADIP, AORB}
END

