!B3LYP EPR-III Autoaux
!PAL4

* xyz 0 2
 C    -61.1783357343    -83.7227917197    -25.9723929573
 H    -62.1314835638    -84.3008545353    -25.9764388867
 H    -60.2654745964    -84.3088263986    -26.0259914575
 H    -61.3317006083    -82.6046166022    -25.8692679485
*

%EPRNMR
        GTENSOR   TRUE
        NUCLEI    = ALL H {AISO, ADIP, AORB}
        NUCLEI    = ALL C {AISO, ADIP, AORB}
END

