!B3LYP EPR-III Autoaux
!PAL4

* xyz 0 2
 C    -22.7305305937    -40.6096459189    -16.2719786632
 H    -21.7727998028    -40.9909697295    -16.0355907158
 H    -23.1767641138    -39.6515635001    -16.1590397794
 H    -23.4391157954    -41.3517791357    -16.5728651284
*

%EPRNMR
        GTENSOR   TRUE
        NUCLEI    = ALL H {AISO, ADIP, AORB}
        NUCLEI    = ALL C {AISO, ADIP, AORB}
END

