!B3LYP EPR-III Autoaux
!PAL4

* xyz 0 2
 C     -4.2884430118    -19.8001377385    -11.5078892572
 H     -4.9726326737    -19.7735904800    -10.5683161827
 H     -3.8846971334    -20.6441637615    -12.0531485168
 H     -3.9272336058    -18.8071175334    -11.7211819446
*

%EPRNMR
        GTENSOR   TRUE
        NUCLEI    = ALL H {AISO, ADIP, AORB}
        NUCLEI    = ALL C {AISO, ADIP, AORB}
END

