!B3LYP EPR-III Autoaux
!PAL4

* xyz 0 2
 C      9.0186043601     -4.6430879085     -8.0573135767
 H      8.1139490185     -4.0815281305     -8.1899515957
 H      9.3465325063     -5.2703496743     -8.8442643104
 H      9.5101832219     -4.7220336732     -7.1209210516
*

%EPRNMR
        GTENSOR   TRUE
        NUCLEI    = ALL H {AISO, ADIP, AORB}
        NUCLEI    = ALL C {AISO, ADIP, AORB}
END

