!B3LYP EPR-III Autoaux
!PAL4

* xyz 0 2
 C    -52.7858633123    -74.2878939529    -23.8591500212
 H    -53.7360913877    -73.8621812732    -23.7731458167
 H    -52.5416435082    -75.3114458750    -23.9794836501
 H    -51.9070609939    -73.7455977429    -23.7620941014
*

%EPRNMR
        GTENSOR   TRUE
        NUCLEI    = ALL H {AISO, ADIP, AORB}
        NUCLEI    = ALL C {AISO, ADIP, AORB}
END

