!B3LYP EPR-III Autoaux
!PAL4

* xyz 0 2
 C    -33.7330680398    -52.9892874096    -19.0614150048
 H    -34.0042845593    -54.0766003386    -19.0299622858
 H    -32.6546507391    -52.8964907706    -19.2343657525
 H    -34.4617857447    -52.1971869057    -18.8838468923
*

%EPRNMR
        GTENSOR   TRUE
        NUCLEI    = ALL H {AISO, ADIP, AORB}
        NUCLEI    = ALL C {AISO, ADIP, AORB}
END

