!B3LYP EPR-III Autoaux
!PAL4

* xyz 0 2
 C    -36.2624365379    -55.8352739481    -19.6994182241
 H    -35.2043291416    -55.3566111953    -19.6851746900
 H    -37.1843917706    -55.3613680868    -19.4979018047
 H    -36.4148982601    -56.9184220419    -19.9104928950
*

%EPRNMR
        GTENSOR   TRUE
        NUCLEI    = ALL H {AISO, ADIP, AORB}
        NUCLEI    = ALL C {AISO, ADIP, AORB}
END

