!B3LYP EPR-III Autoaux
!PAL4

* xyz 0 2
 C    -36.0594404940    -55.6272804635    -19.6426127007
 H    -35.0434850552    -55.2698425495    -19.6356417380
 H    -36.7922890985    -54.8352114078    -19.4719982299
 H    -36.3593863563    -56.6198720258    -19.8983392014
*

%EPRNMR
        GTENSOR   TRUE
        NUCLEI    = ALL H {AISO, ADIP, AORB}
        NUCLEI    = ALL C {AISO, ADIP, AORB}
END

