!B3LYP EPR-III Autoaux
!PAL4

* xyz 0 2
 C    -28.5538900648    -47.1862179339    -17.7482978082
 H    -27.7081004527    -47.8636278545    -17.6398784500
 H    -28.5633266066    -46.1389699721    -17.7776294637
 H    -29.5267039124    -47.5923399391    -17.9763407051
*

%EPRNMR
        GTENSOR   TRUE
        NUCLEI    = ALL H {AISO, ADIP, AORB}
        NUCLEI    = ALL C {AISO, ADIP, AORB}
END

