!B3LYP EPR-III Autoaux
!PAL4

* xyz 0 2
 C    -74.5992193251    -99.7861615925    -29.0734222679
 H    -75.5457302149    -99.2305683621    -29.0314173157
 H    -74.4937767933   -100.8631446305    -29.1641458814
 H    -73.6851905905    -99.1855053860    -28.9834735212
*

%EPRNMR
        GTENSOR   TRUE
        NUCLEI    = ALL H {AISO, ADIP, AORB}
        NUCLEI    = ALL C {AISO, ADIP, AORB}
END

