!B3LYP EPR-III Autoaux
!PAL4

* xyz 0 2
 C     -8.1887204738    -24.2303695989    -12.4948763736
 H     -8.7210506597    -25.0277761457    -13.0632838867
 H     -7.2564202862    -23.9391603088    -13.0419417626
 H     -8.5101002294    -23.5821053860    -11.6295983427
*

%EPRNMR
        GTENSOR   TRUE
        NUCLEI    = ALL H {AISO, ADIP, AORB}
        NUCLEI    = ALL C {AISO, ADIP, AORB}
END

