!B3LYP EPR-III Autoaux
!PAL4

* xyz 0 2
 C    -41.8653230652    -62.1000154623    -21.1247380865
 H    -40.9966801977    -62.7241532674    -21.0829337515
 H    -41.5499146304    -61.0546077464    -20.9831845409
 H    -42.8576699152    -62.5096475532    -21.2229615278
*

%EPRNMR
        GTENSOR   TRUE
        NUCLEI    = ALL H {AISO, ADIP, AORB}
        NUCLEI    = ALL C {AISO, ADIP, AORB}
END

