!B3LYP EPR-III Autoaux
!PAL4

* xyz 0 2
 C      8.0045549071     -5.8171413481     -8.3328030468
 H      8.5645559916     -5.3635347769     -7.4280454932
 H      7.5391066689     -5.1369409207     -9.0645798030
 H      7.6685996559     -6.8630142050     -8.2786257932
*

%EPRNMR
        GTENSOR   TRUE
        NUCLEI    = ALL H {AISO, ADIP, AORB}
        NUCLEI    = ALL C {AISO, ADIP, AORB}
END

