!B3LYP EPR-III Autoaux
!PAL4

* xyz 0 2
 C    -71.8834134951    -96.4782688991    -28.4346131707
 H    -70.8174979716    -96.1747059484    -28.3784539939
 H    -72.7492596089    -95.7901215422    -28.3739460734
 H    -72.0880551060    -97.6199850278    -28.5149694652
*

%EPRNMR
        GTENSOR   TRUE
        NUCLEI    = ALL H {AISO, ADIP, AORB}
        NUCLEI    = ALL C {AISO, ADIP, AORB}
END

