!B3LYP EPR-III Autoaux
!PAL4

* xyz 0 2
 C    -32.2066401895    -51.2947907141    -18.6826670915
 H    -33.2945612960    -51.0053466275    -18.7685363832
 H    -31.8192350636    -52.2050677303    -18.7619286160
 H    -31.4435083459    -50.5823103716    -18.4275176409
*

%EPRNMR
        GTENSOR   TRUE
        NUCLEI    = ALL H {AISO, ADIP, AORB}
        NUCLEI    = ALL C {AISO, ADIP, AORB}
END

