!B3LYP EPR-III Autoaux
!PAL4

* xyz 0 2
 C    -86.0399087749   -113.7935224043    -31.8093811895
 H    -84.9535713078   -114.0222338392    -31.7767655771
 H    -86.3450667339   -112.7580836882    -31.7243463187
 H    -86.6265982800   -114.7967661076    -31.9069914340
*

%EPRNMR
        GTENSOR   TRUE
        NUCLEI    = ALL H {AISO, ADIP, AORB}
        NUCLEI    = ALL C {AISO, ADIP, AORB}
END

