!B3LYP EPR-III Autoaux
!PAL4

* xyz 0 2
 C     10.9371440876     -2.4374255682     -7.5832914536
 H     11.5687802034     -1.9771621171     -8.3011230590
 H     10.8391140588     -2.1529126479     -6.4546376755
 H     10.6430151258     -3.4969691998     -7.8969758939
*

%EPRNMR
        GTENSOR   TRUE
        NUCLEI    = ALL H {AISO, ADIP, AORB}
        NUCLEI    = ALL C {AISO, ADIP, AORB}
END

