!B3LYP EPR-III Autoaux
!PAL4

* xyz 0 2
 C    -54.6794116410    -76.4073494238    -24.3429156577
 H    -55.0716557203    -77.4144699324    -24.3736041564
 H    -53.5360700713    -76.2051115793    -24.3567812238
 H    -55.4264602943    -75.6499195347    -24.2885877160
*

%EPRNMR
        GTENSOR   TRUE
        NUCLEI    = ALL H {AISO, ADIP, AORB}
        NUCLEI    = ALL C {AISO, ADIP, AORB}
END

