!B3LYP EPR-III Autoaux
!PAL4

* xyz 0 2
 C     -6.2751820896    -22.0288185619    -12.0044626883
 H     -5.5160881008    -21.2531862696    -12.4491761423
 H     -6.8846289055    -21.9526568939    -11.1498054010
 H     -6.1892426601    -23.0154555172    -12.4972640012
*

%EPRNMR
        GTENSOR   TRUE
        NUCLEI    = ALL H {AISO, ADIP, AORB}
        NUCLEI    = ALL C {AISO, ADIP, AORB}
END

