!B3LYP EPR-III Autoaux
!PAL4

* xyz 0 2
 C    -33.1211530982    -52.3013592574    -18.9117660283
 H    -33.8934028833    -53.0209283435    -18.9253137982
 H    -32.1624215930    -52.7908610242    -19.0903800850
 H    -33.2214565354    -51.2898199315    -18.6267828664
*

%EPRNMR
        GTENSOR   TRUE
        NUCLEI    = ALL H {AISO, ADIP, AORB}
        NUCLEI    = ALL C {AISO, ADIP, AORB}
END

