!B3LYP EPR-III Autoaux
!PAL4

* xyz 0 2
 C    -63.4626017871    -86.3984216319    -26.5062357292
 H    -62.6121052565    -87.0088897637    -26.5703016984
 H    -63.4827975639    -85.3686045038    -26.3680955233
 H    -64.4868078859    -86.7588135327    -26.5430218455
*

%EPRNMR
        GTENSOR   TRUE
        NUCLEI    = ALL H {AISO, ADIP, AORB}
        NUCLEI    = ALL C {AISO, ADIP, AORB}
END

