!B3LYP EPR-III Autoaux
!PAL4

* xyz 0 2
 C    -57.1569617985    -79.1804161024    -24.9772196819
 H    -56.1353695373    -78.8574222218    -24.9719467473
 H    -57.8587439852    -78.3384771828    -24.8404703713
 H    -57.4742751752    -80.1675266545    -25.0529884991
*

%EPRNMR
        GTENSOR   TRUE
        NUCLEI    = ALL H {AISO, ADIP, AORB}
        NUCLEI    = ALL C {AISO, ADIP, AORB}
END

