!B3LYP EPR-III Autoaux
!PAL4

* xyz 0 2
 C    -87.0622107445   -115.0663790879    -32.0320731178
 H    -86.1862503147   -114.4173682372    -31.9337415907
 H    -88.1017025585   -114.6796495231    -32.0409323700
 H    -86.7562558976   -116.1923174143    -32.1040312165
*

%EPRNMR
        GTENSOR   TRUE
        NUCLEI    = ALL H {AISO, ADIP, AORB}
        NUCLEI    = ALL C {AISO, ADIP, AORB}
END

