!B3LYP EPR-III Autoaux
!PAL4

* xyz 0 2
 C    -41.3342099813    -61.5212747811    -20.9793061913
 H    -40.9699777384    -62.4764261730    -20.9953303507
 H    -40.6745405992    -60.6321811484    -21.0010085069
 H    -42.3665074063    -61.4490945118    -21.0481255536
*

%EPRNMR
        GTENSOR   TRUE
        NUCLEI    = ALL H {AISO, ADIP, AORB}
        NUCLEI    = ALL C {AISO, ADIP, AORB}
END

