!B3LYP EPR-III Autoaux
!PAL4

* xyz 0 2
 C      3.7361403616    -10.6239761376     -9.4127779082
 H      3.5550311113     -9.6572268106     -9.9570109020
 H      3.4581511970    -11.5018926037     -9.8271874043
 H      4.4067567960    -10.5790643236     -8.5788920498
*

%EPRNMR
        GTENSOR   TRUE
        NUCLEI    = ALL H {AISO, ADIP, AORB}
        NUCLEI    = ALL C {AISO, ADIP, AORB}
END

