!B3LYP EPR-III Autoaux
!PAL4

* xyz 0 2
 C    -83.3911379906   -110.5633097474    -31.2019701419
 H    -84.1706508993   -111.2962774210    -31.2984045259
 H    -82.3765287375   -110.9214350704    -31.1929848337
 H    -83.7700344883   -109.5638096360    -31.1404297946
*

%EPRNMR
        GTENSOR   TRUE
        NUCLEI    = ALL H {AISO, ADIP, AORB}
        NUCLEI    = ALL C {AISO, ADIP, AORB}
END

