!B3LYP EPR-III Autoaux
!PAL4

* xyz 0 2
 C    -66.3988893561    -89.8605181083    -27.1853689600
 H    -66.7887521893    -88.8541082171    -27.0812457710
 H    -67.1786438213    -90.5685248984    -27.2624042423
 H    -65.2659551543    -89.9818954009    -27.1421640384
*

%EPRNMR
        GTENSOR   TRUE
        NUCLEI    = ALL H {AISO, ADIP, AORB}
        NUCLEI    = ALL C {AISO, ADIP, AORB}
END

