!B3LYP EPR-III Autoaux
!PAL4

* xyz 0 2
 C    -68.2756315613    -92.0823128090    -27.6012326610
 H    -69.2700697560    -92.5011331560    -27.6570510884
 H    -67.3475940450    -92.7550272155    -27.6685759908
 H    -68.0112829262    -91.0443999803    -27.5256693965
*

%EPRNMR
        GTENSOR   TRUE
        NUCLEI    = ALL H {AISO, ADIP, AORB}
        NUCLEI    = ALL C {AISO, ADIP, AORB}
END

