!B3LYP EPR-III Autoaux
!PAL4

* xyz 0 2
 C    -85.1271787226   -112.7039177498    -31.6059884843
 H    -84.4959682541   -113.5393641836    -31.6482165049
 H    -84.7954816061   -111.7338802322    -31.4987652369
 H    -86.1822889051   -112.8149401617    -31.6517185735
*

%EPRNMR
        GTENSOR   TRUE
        NUCLEI    = ALL H {AISO, ADIP, AORB}
        NUCLEI    = ALL C {AISO, ADIP, AORB}
END

