!B3LYP EPR-III Autoaux
!PAL4

* xyz 0 2
 C      8.3016843807     -5.4411468099     -8.2350194464
 H      9.2064789897     -6.0912335667     -7.8666528047
 H      8.3354161606     -4.8754215031     -9.1265806896
 H      7.3309825556     -5.6512400019     -7.7511230824
*

%EPRNMR
        GTENSOR   TRUE
        NUCLEI    = ALL H {AISO, ADIP, AORB}
        NUCLEI    = ALL C {AISO, ADIP, AORB}
END

