!B3LYP EPR-III Autoaux
!PAL4

* xyz 0 2
 C    -65.7147363261    -89.0191577961    -27.0184385753
 H    -65.3887956086    -87.9672517422    -26.9383004050
 H    -66.7505686560    -89.2569697593    -27.0759933412
 H    -64.8822223509    -89.7589040772    -27.0659900410
*

%EPRNMR
        GTENSOR   TRUE
        NUCLEI    = ALL H {AISO, ADIP, AORB}
        NUCLEI    = ALL C {AISO, ADIP, AORB}
END

