!B3LYP EPR-III Autoaux
!PAL4

* xyz 0 2
 C    -31.1274400431    -50.0942191748    -18.4081707234
 H    -31.5912727825    -49.0978199114    -18.5121074747
 H    -31.9281973062    -50.8789250050    -18.3266236125
 H    -30.0607990656    -50.3116876012    -18.4203862519
*

%EPRNMR
        GTENSOR   TRUE
        NUCLEI    = ALL H {AISO, ADIP, AORB}
        NUCLEI    = ALL C {AISO, ADIP, AORB}
END

