!B3LYP EPR-III Autoaux
!PAL4

* xyz 0 2
 C    -17.0785827642    -34.2489396256    -14.8116164707
 H    -16.1324206439    -34.9060476324    -14.6145709146
 H    -17.0808538476    -33.2382154027    -14.4415700284
 H    -17.9299133567    -34.5286065075    -15.3888973863
*

%EPRNMR
        GTENSOR   TRUE
        NUCLEI    = ALL H {AISO, ADIP, AORB}
        NUCLEI    = ALL C {AISO, ADIP, AORB}
END

