!B3LYP EPR-III Autoaux
!PAL4

* xyz 0 2
 C    -63.1063780213    -85.9780741093    -26.4168059387
 H    -62.4595699465    -86.8533682766    -26.5177112163
 H    -62.7885636485    -84.9674409570    -26.3013709051
 H    -64.2010991567    -86.0103550018    -26.4559494781
*

%EPRNMR
        GTENSOR   TRUE
        NUCLEI    = ALL H {AISO, ADIP, AORB}
        NUCLEI    = ALL C {AISO, ADIP, AORB}
END

