!B3LYP EPR-III Autoaux
!PAL4

* xyz 0 2
 C    -92.8261305789   -122.3178071647    -33.2161906176
 H    -92.0830560942   -123.1681182179    -33.2557684476
 H    -92.5097012707   -121.2504451750    -33.1129442329
 H    -93.8603026909   -122.5813530961    -33.2971855832
*

%EPRNMR
        GTENSOR   TRUE
        NUCLEI    = ALL H {AISO, ADIP, AORB}
        NUCLEI    = ALL C {AISO, ADIP, AORB}
END

