!B3LYP EPR-III Autoaux
!PAL4

* xyz 0 2
 C    -87.9127840590   -116.1417543639    -32.2245071772
 H    -87.8020013967   -115.0461822171    -32.1230949817
 H    -88.9335992832   -116.5760612706    -32.3045811914
 H    -87.1206187924   -116.8444803863    -32.2435133040
*

%EPRNMR
        GTENSOR   TRUE
        NUCLEI    = ALL H {AISO, ADIP, AORB}
        NUCLEI    = ALL C {AISO, ADIP, AORB}
END

