!B3LYP EPR-III Autoaux
!PAL4

* xyz 0 2
 C    -37.3045714178    -56.9923306053    -19.9569624613
 H    -37.0328143694    -55.9084364268    -20.0108637690
 H    -38.1757173215    -57.4375424308    -19.8377146882
 H    -36.4674738228    -57.6655742224    -20.0591746108
*

%EPRNMR
        GTENSOR   TRUE
        NUCLEI    = ALL H {AISO, ADIP, AORB}
        NUCLEI    = ALL C {AISO, ADIP, AORB}
END

