!B3LYP EPR-III Autoaux
!PAL4

* xyz 0 2
 C      7.1360022083     -6.7671339076     -8.5443537512
 H      6.6577307912     -6.9945284685     -7.5761540799
 H      7.7362391038     -7.4818373435     -8.9594502528
 H      7.0735775761     -5.8043100467     -8.9742499230
*

%EPRNMR
        GTENSOR   TRUE
        NUCLEI    = ALL H {AISO, ADIP, AORB}
        NUCLEI    = ALL C {AISO, ADIP, AORB}
END

