!B3LYP EPR-III Autoaux
!PAL4

* xyz 0 2
 C    -85.5787662282   -113.2694163167    -31.7123180541
 H    -84.6438113126   -113.7779028579    -31.7152985191
 H    -85.6635844877   -112.2287473973    -31.6168496400
 H    -86.5778390938   -113.7256508374    -31.7828793095
*

%EPRNMR
        GTENSOR   TRUE
        NUCLEI    = ALL H {AISO, ADIP, AORB}
        NUCLEI    = ALL C {AISO, ADIP, AORB}
END

