!B3LYP EPR-III Autoaux
!PAL4

* xyz 0 2
 C    -20.5258617112    -38.1459971428    -15.6959879683
 H    -21.5760321136    -38.5600147205    -15.7559716610
 H    -19.6299294504    -38.4663694462    -16.0534105982
 H    -20.5380515145    -37.1801980776    -15.3098501395
*

%EPRNMR
        GTENSOR   TRUE
        NUCLEI    = ALL H {AISO, ADIP, AORB}
        NUCLEI    = ALL C {AISO, ADIP, AORB}
END

