!B3LYP EPR-III Autoaux
!PAL4

* xyz 0 2
 C    -31.3301232856    -50.2900095240    -18.4637930365
 H    -31.7742200475    -49.3378405713    -18.5362802816
 H    -31.7708856050    -51.2489357437    -18.3576620524
 H    -30.2631880770    -50.3455829489    -18.3702356345
*

%EPRNMR
        GTENSOR   TRUE
        NUCLEI    = ALL H {AISO, ADIP, AORB}
        NUCLEI    = ALL C {AISO, ADIP, AORB}
END

