!B3LYP EPR-III Autoaux
!PAL4

* xyz 0 2
 C    -67.9343790967    -91.6841322142    -27.5300536683
 H    -69.0316073907    -91.8351347778    -27.5428235027
 H    -67.3495358526    -92.6566025651    -27.6100932306
 H    -67.4752534443    -90.7087953049    -27.4309245951
*

%EPRNMR
        GTENSOR   TRUE
        NUCLEI    = ALL H {AISO, ADIP, AORB}
        NUCLEI    = ALL C {AISO, ADIP, AORB}
END

