!B3LYP EPR-III Autoaux
!PAL4

* xyz 0 2
 C      7.5047937687     -6.3756669408     -8.4430678651
 H      7.2734200093     -5.9858624127     -7.3701670311
 H      6.8236259180     -6.7441120734     -9.2048558094
 H      8.5033532571     -5.9969255613     -8.7164314688
*

%EPRNMR
        GTENSOR   TRUE
        NUCLEI    = ALL H {AISO, ADIP, AORB}
        NUCLEI    = ALL C {AISO, ADIP, AORB}
END

