!B3LYP EPR-III Autoaux
!PAL4

* xyz 0 2
 C      3.0176176052    -11.4642816091     -9.6170379989
 H      2.6689433583    -12.5206816458     -9.7630779093
 H      3.5186810052    -10.8617958199    -10.3401457481
 H      2.6446362585    -11.0164530154     -8.6943410554
*

%EPRNMR
        GTENSOR   TRUE
        NUCLEI    = ALL H {AISO, ADIP, AORB}
        NUCLEI    = ALL C {AISO, ADIP, AORB}
END

