!B3LYP EPR-III Autoaux
!PAL4

* xyz 0 2
 C    -48.1029745572    -69.0788209651    -22.6809383536
 H    -47.8986977814    -70.1262374615    -22.7298000508
 H    -47.3347176238    -68.4400999459    -22.6770522695
 H    -49.1715637978    -68.8481479194    -22.7104882447
*

%EPRNMR
        GTENSOR   TRUE
        NUCLEI    = ALL H {AISO, ADIP, AORB}
        NUCLEI    = ALL C {AISO, ADIP, AORB}
END

