!B3LYP EPR-III Autoaux
!PAL4

* xyz 0 2
 C     11.8602466989     -1.4286350579     -7.3470912952
 H     11.2852134518     -0.5779053628     -7.2262227291
 H     11.9974690778     -2.2159151941     -6.6060006539
 H     12.3972275811     -1.4739670011     -8.2666184723
*

%EPRNMR
        GTENSOR   TRUE
        NUCLEI    = ALL H {AISO, ADIP, AORB}
        NUCLEI    = ALL C {AISO, ADIP, AORB}
END

