!B3LYP EPR-III Autoaux
!PAL4

* xyz 0 2
 C    -23.6141232887    -41.6021787657    -16.4919951864
 H    -22.7838621038    -40.9880539548    -16.4687575086
 H    -24.6996108061    -41.3941236148    -16.2227950569
 H    -23.4957676791    -42.6301334205    -16.8603075672
*

%EPRNMR
        GTENSOR   TRUE
        NUCLEI    = ALL H {AISO, ADIP, AORB}
        NUCLEI    = ALL C {AISO, ADIP, AORB}
END

