!B3LYP EPR-III Autoaux
!PAL4

* xyz 0 2
 C    -83.5274013613   -110.7363686313    -31.2353469369
 H    -84.2053180829   -111.5366307672    -31.3301948975
 H    -82.5209607614   -110.9446164614    -31.2106756608
 H    -84.0175596782   -109.7749543542    -31.1786107728
*

%EPRNMR
        GTENSOR   TRUE
        NUCLEI    = ALL H {AISO, ADIP, AORB}
        NUCLEI    = ALL C {AISO, ADIP, AORB}
END

