!B3LYP EPR-III Autoaux
!PAL4

* xyz 0 2
 C    -88.7558254172   -117.1795535509    -32.3958412587
 H    -89.3996556036   -116.2782329384    -32.3483261569
 H    -89.2475225245   -118.1867679116    -32.5044296265
 H    -87.6419664978   -117.2796376437    -32.3512304118
*

%EPRNMR
        GTENSOR   TRUE
        NUCLEI    = ALL H {AISO, ADIP, AORB}
        NUCLEI    = ALL C {AISO, ADIP, AORB}
END

