!B3LYP EPR-III Autoaux
!PAL4

* xyz 0 2
 C      5.3215141875     -8.8163701434     -9.0014686258
 H      4.4989294335     -9.0690087018     -9.6210295466
 H      5.8049523893     -9.3907566721     -8.1254651677
 H      5.8665245213     -7.9312432280     -9.3730053003
*

%EPRNMR
        GTENSOR   TRUE
        NUCLEI    = ALL H {AISO, ADIP, AORB}
        NUCLEI    = ALL C {AISO, ADIP, AORB}
END

