!B3LYP EPR-III Autoaux
!PAL4

* xyz 0 2
 C    -24.2825689991    -42.3512535276    -16.6600965309
 H    -24.1072255414    -41.3236999790    -16.7930917647
 H    -25.2955738230    -42.8550653949    -16.4177342479
 H    -23.5109288631    -43.1118404399    -16.8840074772
*

%EPRNMR
        GTENSOR   TRUE
        NUCLEI    = ALL H {AISO, ADIP, AORB}
        NUCLEI    = ALL C {AISO, ADIP, AORB}
END

