!B3LYP EPR-III Autoaux
!PAL4

* xyz 0 2
 C    -56.1955762965    -78.0815074840    -24.7297038183
 H    -55.3057418369    -78.6890225966    -24.8194959374
 H    -56.0442526114    -77.0023589798    -24.6041867411
 H    -57.1537100552    -78.6213689636    -24.8221106334
*

%EPRNMR
        GTENSOR   TRUE
        NUCLEI    = ALL H {AISO, ADIP, AORB}
        NUCLEI    = ALL C {AISO, ADIP, AORB}
END

