!B3LYP EPR-III Autoaux
!PAL4

* xyz 0 2
 C     -0.3412590261    -15.3019157684    -10.4554462069
 H      0.2301184649    -14.3975759003    -10.9389336057
 H     -0.9331117589    -15.3567900239     -9.6001009628
 H     -0.3550284371    -16.1233968054    -11.2130825976
*

%EPRNMR
        GTENSOR   TRUE
        NUCLEI    = ALL H {AISO, ADIP, AORB}
        NUCLEI    = ALL C {AISO, ADIP, AORB}
END

