!B3LYP EPR-III Autoaux
!PAL4

* xyz 0 2
 C     10.4060330483     -3.0665041636     -7.7118170182
 H      9.9499727130     -2.9321105526     -8.6600308197
 H     10.2343616925     -4.0422583129     -7.2887204706
 H     11.0519654966     -2.3626720611     -7.2022366731
*

%EPRNMR
        GTENSOR   TRUE
        NUCLEI    = ALL H {AISO, ADIP, AORB}
        NUCLEI    = ALL C {AISO, ADIP, AORB}
END

