!B3LYP EPR-III Autoaux
!PAL4

* xyz 0 2
 C    -47.3352760981    -68.2145601112    -22.4851955396
 H    -47.7487803371    -69.1881481454    -22.5157054402
 H    -46.2670633881    -68.2457563989    -22.6007543444
 H    -47.9449514710    -67.3668542966    -22.4256170975
*

%EPRNMR
        GTENSOR   TRUE
        NUCLEI    = ALL H {AISO, ADIP, AORB}
        NUCLEI    = ALL C {AISO, ADIP, AORB}
END

