!B3LYP EPR-III Autoaux
!PAL4

* xyz 0 2
 C    -50.5541572772    -71.8367105045    -23.2935674797
 H    -49.8352690283    -70.9927209856    -23.3264752481
 H    -51.6353229307    -71.3744718272    -23.1956766857
 H    -50.1614401869    -72.8112893080    -23.4191437879
*

%EPRNMR
        GTENSOR   TRUE
        NUCLEI    = ALL H {AISO, ADIP, AORB}
        NUCLEI    = ALL C {AISO, ADIP, AORB}
END

