!B3LYP EPR-III Autoaux
!PAL4

* xyz 0 2
 C    -71.0770181801    -95.4795305259    -28.2445651884
 H    -70.0507995063    -95.8869400813    -28.2523304537
 H    -71.0660444711    -94.2803154908    -28.1087747281
 H    -71.7869897211    -96.2684378734    -28.3226721934
*

%EPRNMR
        GTENSOR   TRUE
        NUCLEI    = ALL H {AISO, ADIP, AORB}
        NUCLEI    = ALL C {AISO, ADIP, AORB}
END

