!B3LYP EPR-III Autoaux
!PAL4

* xyz 0 2
 C    -78.0161216674   -103.9524267379    -29.8915041251
 H    -77.1178596061   -104.6007774844    -29.9325125564
 H    -77.7588323828   -102.7998183987    -29.7783972262
 H    -79.0333715987   -104.3136898583    -29.9620547430
*

%EPRNMR
        GTENSOR   TRUE
        NUCLEI    = ALL H {AISO, ADIP, AORB}
        NUCLEI    = ALL C {AISO, ADIP, AORB}
END

