!B3LYP EPR-III Autoaux
!PAL4

* xyz 0 2
 C    -41.1880137176    -61.3492906595    -20.9446811792
 H    -40.8596027444    -62.3167557795    -20.9343311715
 H    -40.3690106281    -60.6247918798    -20.9682601704
 H    -42.1972529420    -61.0659324640    -20.9624541943
*

%EPRNMR
        GTENSOR   TRUE
        NUCLEI    = ALL H {AISO, ADIP, AORB}
        NUCLEI    = ALL C {AISO, ADIP, AORB}
END

