!B3LYP EPR-III Autoaux
!PAL4

* xyz 0 2
 C    -49.1434961982    -70.2323117341    -22.9396710655
 H    -48.1692168056    -70.7295565840    -23.0233398760
 H    -49.2053450477    -69.1762029513    -22.8161379756
 H    -50.0142409308    -70.9179844552    -23.0754759547
*

%EPRNMR
        GTENSOR   TRUE
        NUCLEI    = ALL H {AISO, ADIP, AORB}
        NUCLEI    = ALL C {AISO, ADIP, AORB}
END

