!B3LYP EPR-III Autoaux
!PAL4

* xyz 0 2
 C    -12.8828341664    -29.5591374254    -13.7177469299
 H    -12.0520114163    -29.6526889490    -14.5246831600
 H    -12.9934372220    -28.6391853251    -13.2149687431
 H    -13.6661925927    -30.2231613016    -13.5574486149
*

%EPRNMR
        GTENSOR   TRUE
        NUCLEI    = ALL H {AISO, ADIP, AORB}
        NUCLEI    = ALL C {AISO, ADIP, AORB}
END

