!B3LYP EPR-III Autoaux
!PAL4

* xyz 0 2
 C    -63.0700305450    -85.9295210845    -26.4087094239
 H    -62.4961880328    -86.8284125988    -26.5052384059
 H    -62.6617682586    -84.9162027670    -26.2844801182
 H    -64.1640451634    -86.0107873273    -26.4491541476
*

%EPRNMR
        GTENSOR   TRUE
        NUCLEI    = ALL H {AISO, ADIP, AORB}
        NUCLEI    = ALL C {AISO, ADIP, AORB}
END

