!B3LYP EPR-III Autoaux
!PAL4

* xyz 0 2
 C    -74.0972173384    -99.1596342827    -28.9532055847
 H    -74.7847661588    -98.3150980711    -28.8859378426
 H    -74.3822419885   -100.1320254519    -29.0534647102
 H    -72.9943166526    -99.1536876513    -28.9117897342
*

%EPRNMR
        GTENSOR   TRUE
        NUCLEI    = ALL H {AISO, ADIP, AORB}
        NUCLEI    = ALL C {AISO, ADIP, AORB}
END

