!B3LYP EPR-III Autoaux
!PAL4

* xyz 0 2
 C    -51.0916497798    -72.4017785814    -23.4401245725
 H    -50.6693503382    -71.3856580503    -23.3990430620
 H    -52.2165487756    -72.8285453599    -23.3663096689
 H    -50.3984182307    -73.2118865365    -23.4588109391
*

%EPRNMR
        GTENSOR   TRUE
        NUCLEI    = ALL H {AISO, ADIP, AORB}
        NUCLEI    = ALL C {AISO, ADIP, AORB}
END

