!B3LYP EPR-III Autoaux
!PAL4

* xyz 0 2
 C    -72.6453609988    -97.4198511487    -28.6129085435
 H    -72.0738634186    -96.4963268373    -28.5236246209
 H    -73.7841461110    -97.4885912508    -28.6548162218
 H    -72.2752074878    -98.4081016798    -28.6794574408
*

%EPRNMR
        GTENSOR   TRUE
        NUCLEI    = ALL H {AISO, ADIP, AORB}
        NUCLEI    = ALL C {AISO, ADIP, AORB}
END

