!B3LYP EPR-III Autoaux
!PAL4

* xyz 0 2
 C    -66.8661974156    -90.4070122066    -27.2805382435
 H    -67.5327285730    -89.5226260120    -27.2257630455
 H    -67.1595141048    -91.3946354819    -27.4105888597
 H    -65.7517907786    -90.1247555978    -27.2458976438
*

%EPRNMR
        GTENSOR   TRUE
        NUCLEI    = ALL H {AISO, ADIP, AORB}
        NUCLEI    = ALL C {AISO, ADIP, AORB}
END

