!B3LYP EPR-III Autoaux
!PAL4

* xyz 0 2
 C    -27.5715596167    -46.0475463711    -17.4939967020
 H    -27.4768705998    -47.2371041750    -17.4914649375
 H    -26.6496055583    -45.6949652916    -17.7518368795
 H    -28.5548659414    -45.5473706025    -17.4011337362
*

%EPRNMR
        GTENSOR   TRUE
        NUCLEI    = ALL H {AISO, ADIP, AORB}
        NUCLEI    = ALL C {AISO, ADIP, AORB}
END

