!B3LYP EPR-III Autoaux
!PAL4

* xyz 0 2
 C    -53.5088379889    -75.0982080691    -24.0374123377
 H    -54.6002821401    -75.2877008105    -23.9931799786
 H    -52.6123793009    -75.7582456774    -24.1810595142
 H    -53.0602379947    -74.1235170609    -23.9593355674
*

%EPRNMR
        GTENSOR   TRUE
        NUCLEI    = ALL H {AISO, ADIP, AORB}
        NUCLEI    = ALL C {AISO, ADIP, AORB}
END

