!B3LYP EPR-III Autoaux
!PAL4

* xyz 0 2
 C    -87.8145059813   -116.0210307778    -32.1998834170
 H    -87.5771403283   -114.9284121618    -32.1034417843
 H    -88.8989416641   -116.2768052047    -32.2787611219
 H    -86.9771717769   -116.7399985404    -32.2281273672
*

%EPRNMR
        GTENSOR   TRUE
        NUCLEI    = ALL H {AISO, ADIP, AORB}
        NUCLEI    = ALL C {AISO, ADIP, AORB}
END

