!B3LYP EPR-III Autoaux
!PAL4

* xyz 0 2
 C     10.8766081990     -2.5285644605     -7.5909585203
 H     11.3097235642     -1.8305795625     -8.3189722295
 H     10.6526840116     -2.2029037362     -6.6455825771
 H     10.9050808073     -3.5298037535     -7.8226189750
*

%EPRNMR
        GTENSOR   TRUE
        NUCLEI    = ALL H {AISO, ADIP, AORB}
        NUCLEI    = ALL C {AISO, ADIP, AORB}
END

