!B3LYP EPR-III Autoaux
!PAL4

* xyz 0 2
 C     -7.0874926248    -22.9680099772    -12.2139235418
 H     -7.6272338451    -22.3402855341    -12.8316194583
 H     -7.6042320266    -23.9732788139    -11.9210423187
 H     -6.0012844119    -22.7023774695    -12.0524218838
*

%EPRNMR
        GTENSOR   TRUE
        NUCLEI    = ALL H {AISO, ADIP, AORB}
        NUCLEI    = ALL C {AISO, ADIP, AORB}
END

