!B3LYP EPR-III Autoaux
!PAL4

* xyz 0 2
 C    -29.5656515612    -48.3414498710    -18.0274988947
 H    -28.6189051081    -47.9153932470    -17.8920110446
 H    -30.5461637282    -47.7084085112    -17.7549792032
 H    -29.8058711631    -49.3699752502    -18.2893713397
*

%EPRNMR
        GTENSOR   TRUE
        NUCLEI    = ALL H {AISO, ADIP, AORB}
        NUCLEI    = ALL C {AISO, ADIP, AORB}
END

