!B3LYP EPR-III Autoaux
!PAL4

* xyz 0 2
 C    -58.7033479215    -80.9003254011    -25.3554177534
 H    -58.6366982770    -79.8436124615    -25.2912434986
 H    -59.6646622909    -81.4704020249    -25.4265066789
 H    -57.8110455259    -81.3858928887    -25.3902768681
*

%EPRNMR
        GTENSOR   TRUE
        NUCLEI    = ALL H {AISO, ADIP, AORB}
        NUCLEI    = ALL C {AISO, ADIP, AORB}
END

