!B3LYP EPR-III Autoaux
!PAL4

* xyz 0 2
 C    -61.6144334497    -84.2196788934    -26.0637256096
 H    -62.2041525407    -85.1049917899    -26.1369634721
 H    -60.6074342786    -84.3769023759    -26.0986386926
 H    -62.0245033553    -83.1790195776    -26.0174341536
*

%EPRNMR
        GTENSOR   TRUE
        NUCLEI    = ALL H {AISO, ADIP, AORB}
        NUCLEI    = ALL C {AISO, ADIP, AORB}
END

