!B3LYP EPR-III Autoaux
!PAL4

* xyz 0 2
 C    -63.7143091076    -86.6953891366    -26.5588055683
 H    -62.6949503007    -87.1305942092    -26.6369218761
 H    -63.9987962992    -85.6630275393    -26.4545862772
 H    -64.6769590175    -87.2642386440    -26.6420018753
*

%EPRNMR
        GTENSOR   TRUE
        NUCLEI    = ALL H {AISO, ADIP, AORB}
        NUCLEI    = ALL C {AISO, ADIP, AORB}
END

