!B3LYP EPR-III Autoaux
!PAL4

* xyz 0 2
 C    -11.4921378017    -27.9762993795    -13.3601159112
 H    -12.4524025227    -28.5434639553    -13.3596877356
 H    -10.5787218892    -28.2737301110    -12.9655938677
 H    -11.5284916100    -27.0687761530    -13.9228737570
*

%EPRNMR
        GTENSOR   TRUE
        NUCLEI    = ALL H {AISO, ADIP, AORB}
        NUCLEI    = ALL C {AISO, ADIP, AORB}
END

