!B3LYP EPR-III Autoaux
!PAL4

* xyz 0 2
 C      6.9055210538     -7.0229895434     -8.6037719790
 H      6.5353335221     -7.6452551609     -7.7540074932
 H      7.9635036963     -7.0090106964     -8.6658255630
 H      6.3126029232     -6.4134263240     -9.2693255241
*

%EPRNMR
        GTENSOR   TRUE
        NUCLEI    = ALL H {AISO, ADIP, AORB}
        NUCLEI    = ALL C {AISO, ADIP, AORB}
END

