!B3LYP EPR-III Autoaux
!PAL4

* xyz 0 2
 C    -51.5176604092    -72.8946357645    -23.5395828059
 H    -51.5386521408    -71.8016120260    -23.5004232522
 H    -52.5092409124    -73.5586844071    -23.5744427881
 H    -50.5321831214    -73.3003332607    -23.5641772362
*

%EPRNMR
        GTENSOR   TRUE
        NUCLEI    = ALL H {AISO, ADIP, AORB}
        NUCLEI    = ALL C {AISO, ADIP, AORB}
END

