!B3LYP EPR-III Autoaux
!PAL4

* xyz 0 2
 C      4.9246691038     -9.2728287292     -9.1113265961
 H      5.1881191795     -9.8128081462    -10.0325980521
 H      5.7347515992     -9.2916435637     -8.3460745372
 H      4.0818457949     -8.5572798509     -8.9866890361
*

%EPRNMR
        GTENSOR   TRUE
        NUCLEI    = ALL H {AISO, ADIP, AORB}
        NUCLEI    = ALL C {AISO, ADIP, AORB}
END

