!B3LYP EPR-III Autoaux
!PAL4

* xyz 0 2
 C    -42.2564691395    -62.5602635811    -21.2240333120
 H    -41.2002323420    -62.9535733604    -21.2335844152
 H    -42.6024237698    -61.5599388343    -21.0736473354
 H    -43.1388732649    -63.2298479182    -21.3782183682
*

%EPRNMR
        GTENSOR   TRUE
        NUCLEI    = ALL H {AISO, ADIP, AORB}
        NUCLEI    = ALL C {AISO, ADIP, AORB}
END

