!B3LYP EPR-III Autoaux
!PAL4

* xyz 0 2
 C    -93.1095500788   -122.6955104694    -33.2820864181
 H    -92.2687241206   -123.2849513461    -33.2921389946
 H    -93.0796274743   -121.6462748608    -33.1943531999
 H    -94.0664692500   -123.2257707725    -33.3719155215
*

%EPRNMR
        GTENSOR   TRUE
        NUCLEI    = ALL H {AISO, ADIP, AORB}
        NUCLEI    = ALL C {AISO, ADIP, AORB}
END

