!B3LYP EPR-III Autoaux
!PAL4

* xyz 0 2
 C    -39.6794396357    -59.6498972124    -20.5656569731
 H    -40.5940564542    -60.2170790434    -20.5611924475
 H    -38.7538424866    -60.3581955072    -20.7612215531
 H    -39.5969432359    -58.5825494170    -20.3467325680
*

%EPRNMR
        GTENSOR   TRUE
        NUCLEI    = ALL H {AISO, ADIP, AORB}
        NUCLEI    = ALL C {AISO, ADIP, AORB}
END

