!B3LYP EPR-III Autoaux
!PAL4

* xyz 0 2
 C      6.6614033928     -7.2912033846     -8.6436442739
 H      6.7140035728     -8.3070529358     -8.1899623111
 H      7.3020256287     -6.4211851125     -8.4115122730
 H      6.0543966858     -7.2815606350     -9.5718559159
*

%EPRNMR
        GTENSOR   TRUE
        NUCLEI    = ALL H {AISO, ADIP, AORB}
        NUCLEI    = ALL C {AISO, ADIP, AORB}
END

