!B3LYP EPR-III Autoaux
!PAL4

* xyz 0 2
 C    -90.4588611074   -119.3406590707    -32.7426761073
 H    -91.4925950398   -119.7131650069    -32.8196664082
 H    -89.6349631540   -120.0767255848    -32.7655773792
 H    -90.4248694821   -118.2229314388    -32.6467215705
*

%EPRNMR
        GTENSOR   TRUE
        NUCLEI    = ALL H {AISO, ADIP, AORB}
        NUCLEI    = ALL C {AISO, ADIP, AORB}
END

