!B3LYP EPR-III Autoaux
!PAL4

* xyz 0 2
 C     -5.0922534948    -20.7323557045    -11.7172771938
 H     -5.3008939509    -21.7141019202    -11.3993587274
 H     -4.2312983003    -20.0472531135    -11.3121563266
 H     -5.9856645913    -20.3773777312    -12.3358599648
*

%EPRNMR
        GTENSOR   TRUE
        NUCLEI    = ALL H {AISO, ADIP, AORB}
        NUCLEI    = ALL C {AISO, ADIP, AORB}
END

