!B3LYP EPR-III Autoaux
!PAL4

* xyz 0 2
 C      1.3077825807    -13.3889939224    -10.0437425135
 H      0.8024004498    -13.3865136056     -9.1781416680
 H      1.3745761058    -14.4184132854    -10.4571976039
 H      1.7395331400    -12.6062701560    -10.5973955999
*

%EPRNMR
        GTENSOR   TRUE
        NUCLEI    = ALL H {AISO, ADIP, AORB}
        NUCLEI    = ALL C {AISO, ADIP, AORB}
END

