!B3LYP EPR-III Autoaux
!PAL4

* xyz 0 2
 C     -1.1219123111    -16.1736204772    -10.6807846738
 H     -1.8630606957    -15.8990564462    -11.3896552230
 H     -1.2014737775    -17.2005947383    -10.2258341090
 H     -0.2394900085    -15.6031591403    -10.4563275480
*

%EPRNMR
        GTENSOR   TRUE
        NUCLEI    = ALL H {AISO, ADIP, AORB}
        NUCLEI    = ALL C {AISO, ADIP, AORB}
END

