!B3LYP EPR-III Autoaux
!PAL4

* xyz 0 2
 C    -24.1488379282    -42.2270081316    -16.6351591009
 H    -23.9122218982    -41.1389903668    -16.6662283107
 H    -25.1225707278    -42.3547732852    -16.3436873649
 H    -23.4478544567    -42.9902961533    -16.8652427448
*

%EPRNMR
        GTENSOR   TRUE
        NUCLEI    = ALL H {AISO, ADIP, AORB}
        NUCLEI    = ALL C {AISO, ADIP, AORB}
END

