!B3LYP EPR-III Autoaux
!PAL4

* xyz 0 2
 C    -13.9887082050    -30.7796670715    -14.0181028425
 H    -13.6179407693    -29.8386980097    -14.2349502651
 H    -14.9678586269    -31.1906613378    -14.2230322588
 H    -13.2528854796    -31.3803604786    -13.4604601484
*

%EPRNMR
        GTENSOR   TRUE
        NUCLEI    = ALL H {AISO, ADIP, AORB}
        NUCLEI    = ALL C {AISO, ADIP, AORB}
END

