!B3LYP EPR-III Autoaux
!PAL4

* xyz 0 2
 C    -71.5114611832    -96.0018778136    -28.3374760552
 H    -70.4216435816    -96.0417479847    -28.3508652067
 H    -71.9058396167    -95.0553425380    -28.2709407227
 H    -71.9132572721    -97.0502326607    -28.4572324702
*

%EPRNMR
        GTENSOR   TRUE
        NUCLEI    = ALL H {AISO, ADIP, AORB}
        NUCLEI    = ALL C {AISO, ADIP, AORB}
END

