!B3LYP EPR-III Autoaux
!PAL4

* xyz 0 2
 C    -44.9205933077    -65.5157192034    -21.8903108946
 H    -45.4547805468    -64.5865696730    -21.8902157856
 H    -45.4317449036    -66.5646741494    -21.9619060394
 H    -43.8515206093    -65.6008410196    -21.8463722952
*

%EPRNMR
        GTENSOR   TRUE
        NUCLEI    = ALL H {AISO, ADIP, AORB}
        NUCLEI    = ALL C {AISO, ADIP, AORB}
END

