!B3LYP EPR-III Autoaux
!PAL4

* xyz 0 2
 C    -60.9335694736    -83.4239259055    -25.9065572951
 H    -61.9666786590    -83.7396931243    -25.9025417049
 H    -60.0675934942    -84.0680332083    -25.9942864406
 H    -60.6805800431    -82.3783341487    -25.8211117555
*

%EPRNMR
        GTENSOR   TRUE
        NUCLEI    = ALL H {AISO, ADIP, AORB}
        NUCLEI    = ALL C {AISO, ADIP, AORB}
END

