!B3LYP EPR-III Autoaux
!PAL4

* xyz 0 2
 C      0.5715956964    -14.2358340287    -10.2248729786
 H      0.4638927325    -15.2933534437    -10.0611564019
 H      1.4271070201    -13.6155800071     -9.7522343097
 H     -0.0534799791    -13.8813044160    -11.0785982219
*

%EPRNMR
        GTENSOR   TRUE
        NUCLEI    = ALL H {AISO, ADIP, AORB}
        NUCLEI    = ALL C {AISO, ADIP, AORB}
END

