!B3LYP EPR-III Autoaux
!PAL4

* xyz 0 2
 C    -12.3834357342    -28.9705166250    -13.5972171071
 H    -11.9705319760    -29.8114226769    -14.2394663944
 H    -11.8215959929    -28.4001904634    -12.8771203187
 H    -13.4803571509    -28.9492508746    -13.7189445783
*

%EPRNMR
        GTENSOR   TRUE
        NUCLEI    = ALL H {AISO, ADIP, AORB}
        NUCLEI    = ALL C {AISO, ADIP, AORB}
END

