!B3LYP EPR-III Autoaux
!PAL4

* xyz 0 2
 C    -51.0180011479    -72.3260672847    -23.4161520879
 H    -50.5969250416    -71.3578182386    -23.3818499204
 H    -52.0143806568    -72.4285583703    -23.3442816128
 H    -50.2596025283    -73.1025601720    -23.4593061628
*

%EPRNMR
        GTENSOR   TRUE
        NUCLEI    = ALL H {AISO, ADIP, AORB}
        NUCLEI    = ALL C {AISO, ADIP, AORB}
END

