!B3LYP EPR-III Autoaux
!PAL4

* xyz 0 2
 C      8.7967735732     -4.8872179785     -8.1160116441
 H      7.8306707094     -5.4060560805     -8.1226157800
 H      9.4797443543     -4.8545513672     -8.9786694075
 H      9.1262869006     -4.4899286522     -7.1474225721
*

%EPRNMR
        GTENSOR   TRUE
        NUCLEI    = ALL H {AISO, ADIP, AORB}
        NUCLEI    = ALL C {AISO, ADIP, AORB}
END

