!B3LYP EPR-III Autoaux
!PAL4

* xyz 0 2
 C    -92.5321816042   -121.9364957180    -33.1530703875
 H    -92.0343242836   -122.8817831496    -33.2040300921
 H    -91.9291206381   -121.0680392401    -33.0483004616
 H    -93.6154261099   -122.0064523331    -33.2170430636
*

%EPRNMR
        GTENSOR   TRUE
        NUCLEI    = ALL H {AISO, ADIP, AORB}
        NUCLEI    = ALL C {AISO, ADIP, AORB}
END

