!B3LYP EPR-III Autoaux
!PAL4

* xyz 0 2
 C    -64.7375942564    -87.8683459592    -26.7912246669
 H    -63.7641453586    -87.4282404854    -26.7815845897
 H    -65.6534730882    -87.4111502099    -26.7560681043
 H    -64.8648725671    -88.9893572778    -26.8896991231
*

%EPRNMR
        GTENSOR   TRUE
        NUCLEI    = ALL H {AISO, ADIP, AORB}
        NUCLEI    = ALL C {AISO, ADIP, AORB}
END

