!B3LYP EPR-III Autoaux
!PAL4

* xyz 0 2
 C    -81.1575795635   -107.7798652971    -30.6501203263
 H    -81.5919576381   -106.8355293869    -30.5873362409
 H    -81.6362875541   -108.6317646602    -30.7643971401
 H    -80.0737008634   -108.0311491113    -30.6468664614
*

%EPRNMR
        GTENSOR   TRUE
        NUCLEI    = ALL H {AISO, ADIP, AORB}
        NUCLEI    = ALL C {AISO, ADIP, AORB}
END

