!B3LYP EPR-III Autoaux
!PAL4

* xyz 0 2
 C    -25.0206919069    -43.2110747127    -16.8515417354
 H    -25.7876759727    -42.3602921176    -17.0919249392
 H    -25.5866133303    -44.1370818655    -16.7956805944
 H    -23.9291125481    -43.1887791237    -16.7901007990
*

%EPRNMR
        GTENSOR   TRUE
        NUCLEI    = ALL H {AISO, ADIP, AORB}
        NUCLEI    = ALL C {AISO, ADIP, AORB}
END

