!B3LYP EPR-III Autoaux
!PAL4

* xyz 0 2
 C    -17.5646169788    -34.7714798874    -14.9373694331
 H    -16.4879158243    -34.8432066009    -14.9592546245
 H    -18.1559732281    -34.1291947687    -14.3612188132
 H    -17.9716330987    -35.6012900132    -15.4580991972
*

%EPRNMR
        GTENSOR   TRUE
        NUCLEI    = ALL H {AISO, ADIP, AORB}
        NUCLEI    = ALL C {AISO, ADIP, AORB}
END

