!B3LYP EPR-III Autoaux
!PAL4

* xyz 0 2
 C    -16.4415970167    -33.5371233663    -14.6567536042
 H    -16.2973897911    -34.4673830826    -14.2372348359
 H    -15.4915071804    -32.9136347102    -14.5956753189
 H    -17.4536029345    -33.1856736279    -15.0028195649
*

%EPRNMR
        GTENSOR   TRUE
        NUCLEI    = ALL H {AISO, ADIP, AORB}
        NUCLEI    = ALL C {AISO, ADIP, AORB}
END

