!B3LYP EPR-III Autoaux
!PAL4

* xyz 0 2
 C     -3.3371674340    -18.7234795618    -11.2564100884
 H     -3.1840557851    -17.7596555030    -10.7048659397
 H     -4.1338969950    -18.6708318556    -11.9567610065
 H     -2.8038658505    -19.6700107576    -11.0378272124
*

%EPRNMR
        GTENSOR   TRUE
        NUCLEI    = ALL H {AISO, ADIP, AORB}
        NUCLEI    = ALL C {AISO, ADIP, AORB}
END

