!B3LYP EPR-III Autoaux
!PAL4

* xyz 0 2
 C    -92.2248761649   -121.5516058282    -33.0893197469
 H    -91.9994902361   -122.6342002143    -33.1731173059
 H    -91.4376800659   -120.8076256502    -32.9923660050
 H    -93.2403825195   -121.3339720278    -33.1327992691
*

%EPRNMR
        GTENSOR   TRUE
        NUCLEI    = ALL H {AISO, ADIP, AORB}
        NUCLEI    = ALL C {AISO, ADIP, AORB}
END

