!B3LYP EPR-III Autoaux
!PAL4

* xyz 0 2
 C      2.8282863156    -11.6694295463     -9.6671807913
 H      3.1782411438    -12.6932373600     -9.6533825627
 H      3.0138136380    -10.9442228002    -10.3867294982
 H      2.1529279935    -11.4523927597     -8.8631090269
*

%EPRNMR
        GTENSOR   TRUE
        NUCLEI    = ALL H {AISO, ADIP, AORB}
        NUCLEI    = ALL C {AISO, ADIP, AORB}
END

