!B3LYP EPR-III Autoaux
!PAL4

* xyz 0 2
 C    -18.5996916151    -35.9572637570    -15.2022592601
 H    -18.5450675163    -34.8833622376    -15.5145466672
 H    -19.5545184605    -36.3219704368    -14.8260623637
 H    -17.7950451384    -36.7030698127    -15.2432342915
*

%EPRNMR
        GTENSOR   TRUE
        NUCLEI    = ALL H {AISO, ADIP, AORB}
        NUCLEI    = ALL C {AISO, ADIP, AORB}
END

