!B3LYP EPR-III Autoaux
!PAL4

* xyz 0 2
 C    -49.1997707140    -70.3218854930    -22.9612099586
 H    -48.1991052241    -70.7771044111    -23.0334853112
 H    -49.5085718476    -69.2983955739    -22.8294999280
 H    -50.1352253673    -70.9375289801    -23.0754494393
*

%EPRNMR
        GTENSOR   TRUE
        NUCLEI    = ALL H {AISO, ADIP, AORB}
        NUCLEI    = ALL C {AISO, ADIP, AORB}
END

