!B3LYP EPR-III Autoaux
!PAL4

* xyz 0 2
 C      8.5721926230     -5.1670210185     -8.1719579546
 H      8.5082438204     -6.2440226887     -8.0821250729
 H      8.9302573675     -4.6052897330     -9.0924940321
 H      8.1358050772     -4.6040445075     -7.3179806510
*

%EPRNMR
        GTENSOR   TRUE
        NUCLEI    = ALL H {AISO, ADIP, AORB}
        NUCLEI    = ALL C {AISO, ADIP, AORB}
END

