!B3LYP EPR-III Autoaux
!PAL4

* xyz 0 2
 C    -17.9428767743    -35.2071068893    -15.0202136414
 H    -17.0021751686    -34.6782571751    -15.2431878634
 H    -18.8772545305    -34.9107824567    -14.4670196330
 H    -17.9478143218    -36.1894309294    -15.5235688506
*

%EPRNMR
        GTENSOR   TRUE
        NUCLEI    = ALL H {AISO, ADIP, AORB}
        NUCLEI    = ALL C {AISO, ADIP, AORB}
END

