!B3LYP EPR-III Autoaux
!PAL4

* xyz 0 2
 C    -47.0459887010    -67.9122575264    -22.4238701787
 H    -47.8002488720    -68.6810819481    -22.3848760518
 H    -45.9377515644    -68.0013540573    -22.5209437194
 H    -47.3327095891    -66.8756960277    -22.2951163509
*

%EPRNMR
        GTENSOR   TRUE
        NUCLEI    = ALL H {AISO, ADIP, AORB}
        NUCLEI    = ALL C {AISO, ADIP, AORB}
END

