!B3LYP EPR-III Autoaux
!PAL4

* xyz 0 2
 C    -41.5293458429    -61.7318747434    -21.0317311592
 H    -40.8803289241    -62.5940766808    -21.0169854091
 H    -40.9656755021    -60.7603089206    -20.9915786486
 H    -42.5992508524    -61.7755217061    -21.1148734818
*

%EPRNMR
        GTENSOR   TRUE
        NUCLEI    = ALL H {AISO, ADIP, AORB}
        NUCLEI    = ALL C {AISO, ADIP, AORB}
END

