!B3LYP EPR-III Autoaux
!PAL4

* xyz 0 2
 C    -90.2676174871   -119.0843538886    -32.7015082468
 H    -91.3101618147   -119.3431054761    -32.7704045945
 H    -89.5864498308   -119.9106583121    -32.7400897582
 H    -89.9993416843   -118.1133468011    -32.6063443626
*

%EPRNMR
        GTENSOR   TRUE
        NUCLEI    = ALL H {AISO, ADIP, AORB}
        NUCLEI    = ALL C {AISO, ADIP, AORB}
END

