!B3LYP EPR-III Autoaux
!PAL4

* xyz 0 2
 C    -64.6541778799    -87.7670951135    -26.7672165202
 H    -63.6411924009    -87.3842537266    -26.7755694838
 H    -65.4323658926    -87.0557234577    -26.7167729253
 H    -64.6713012763    -88.8001586901    -26.8688763245
*

%EPRNMR
        GTENSOR   TRUE
        NUCLEI    = ALL H {AISO, ADIP, AORB}
        NUCLEI    = ALL C {AISO, ADIP, AORB}
END

