!B3LYP EPR-III Autoaux
!PAL4

* xyz 0 2
 C    -32.8178405163    -51.9855955166    -18.8331349806
 H    -33.8408987275    -52.3661610201    -18.8856506644
 H    -31.9878999057    -52.7501681024    -19.0722021487
 H    -32.7685918121    -50.9222216736    -18.5477659066
*

%EPRNMR
        GTENSOR   TRUE
        NUCLEI    = ALL H {AISO, ADIP, AORB}
        NUCLEI    = ALL C {AISO, ADIP, AORB}
END

