!B3LYP EPR-III Autoaux
!PAL4

* xyz 0 2
 C    -32.6667091859    -51.8023148592    -18.7840760266
 H    -33.7608352241    -52.1416706377    -18.9255880032
 H    -31.9419596340    -52.5927439537    -19.0152922733
 H    -32.2826079836    -50.7758079490    -18.5441519583
*

%EPRNMR
        GTENSOR   TRUE
        NUCLEI    = ALL H {AISO, ADIP, AORB}
        NUCLEI    = ALL C {AISO, ADIP, AORB}
END

