!B3LYP EPR-III Autoaux
!PAL4

* xyz 0 2
 C    -43.5840425686    -64.0592009554    -21.5516085777
 H    -43.0257900298    -63.2082927906    -21.5909016629
 H    -44.6387907396    -63.7047051193    -21.4311629376
 H    -43.1499288105    -64.9762501951    -21.7171980631
*

%EPRNMR
        GTENSOR   TRUE
        NUCLEI    = ALL H {AISO, ADIP, AORB}
        NUCLEI    = ALL C {AISO, ADIP, AORB}
END

