!B3LYP EPR-III Autoaux
!PAL4

* xyz 0 2
 C    -27.0733418277    -45.5021594377    -17.3871854457
 H    -27.5617233968    -46.5560918604    -17.3460390058
 H    -26.0707128449    -45.4654460725    -17.5844314518
 H    -27.5318719100    -44.5660553791    -17.0892484879
*

%EPRNMR
        GTENSOR   TRUE
        NUCLEI    = ALL H {AISO, ADIP, AORB}
        NUCLEI    = ALL C {AISO, ADIP, AORB}
END

