!B3LYP EPR-III Autoaux
!PAL4

* xyz 0 2
 C     -6.7378602981    -22.5893765275    -12.1518980146
 H     -6.9994128325    -21.6180394594    -12.6152379587
 H     -7.5012526062    -23.0094438701    -11.4218631265
 H     -5.7748146053    -23.0835093365    -12.1748473433
*

%EPRNMR
        GTENSOR   TRUE
        NUCLEI    = ALL H {AISO, ADIP, AORB}
        NUCLEI    = ALL C {AISO, ADIP, AORB}
END

