!B3LYP EPR-III Autoaux
!PAL4

* xyz 0 2
 C    -77.0741738524   -102.8131428775    -29.6645817393
 H    -77.0464687383   -103.9264279358    -29.7704751295
 H    -76.1952947092   -102.1744504739    -29.5760215403
 H    -78.1354791191   -102.3806401323    -29.6761758586
*

%EPRNMR
        GTENSOR   TRUE
        NUCLEI    = ALL H {AISO, ADIP, AORB}
        NUCLEI    = ALL C {AISO, ADIP, AORB}
END

