!B3LYP EPR-III Autoaux
!PAL4

* xyz 0 2
 C    -10.8273895371    -27.2278411494    -13.2044366988
 H    -11.7251411046    -26.8432649566    -12.5053114618
 H    -10.8299869616    -28.2715631765    -13.1620717768
 H    -10.2358573255    -26.7103951413    -13.9375397601
*

%EPRNMR
        GTENSOR   TRUE
        NUCLEI    = ALL H {AISO, ADIP, AORB}
        NUCLEI    = ALL C {AISO, ADIP, AORB}
END

