!B3LYP EPR-III Autoaux
!PAL4

* xyz 0 2
 C      2.5805287100    -11.9575185634     -9.7165868497
 H      3.5855559194    -12.3127740343     -9.5653907211
 H      2.5970930770    -11.1378713976    -10.4904340207
 H      1.6806887681    -12.1394005444     -9.1400735388
*

%EPRNMR
        GTENSOR   TRUE
        NUCLEI    = ALL H {AISO, ADIP, AORB}
        NUCLEI    = ALL C {AISO, ADIP, AORB}
END

