!B3LYP EPR-III Autoaux
!PAL4

* xyz 0 2
 C      3.2979965202    -11.1529091338     -9.5492128802
 H      2.2202811185    -11.3630764549     -9.7610627059
 H      4.0926977735    -11.2094141203    -10.1949624254
 H      3.4020423823    -10.7213640324     -8.5686866732
*

%EPRNMR
        GTENSOR   TRUE
        NUCLEI    = ALL H {AISO, ADIP, AORB}
        NUCLEI    = ALL C {AISO, ADIP, AORB}
END

