!B3LYP EPR-III Autoaux
!PAL4

* xyz 0 2
 C    -34.6071235042    -54.0238308076    -19.2868114047
 H    -34.2015631732    -54.9674290064    -19.2065055180
 H    -34.1795916873    -52.9132558740    -19.3196204354
 H    -35.6792296687    -53.9267961617    -19.3152644570
*

%EPRNMR
        GTENSOR   TRUE
        NUCLEI    = ALL H {AISO, ADIP, AORB}
        NUCLEI    = ALL C {AISO, ADIP, AORB}
END

