!B3LYP EPR-III Autoaux
!PAL4

* xyz 0 2
 C    -38.6123047783    -58.4854954615    -20.2909885670
 H    -39.5222136800    -58.0509613951    -20.3416074225
 H    -38.7106009266    -59.5851807582    -20.4380136247
 H    -37.7673220548    -57.8977904849    -20.1594018974
*

%EPRNMR
        GTENSOR   TRUE
        NUCLEI    = ALL H {AISO, ADIP, AORB}
        NUCLEI    = ALL C {AISO, ADIP, AORB}
END

