!B3LYP EPR-III Autoaux
!PAL4

* xyz 0 2
 C    -28.6373684774    -47.2830806449    -17.7708891876
 H    -27.7323336731    -47.7476608284    -17.6485491111
 H    -28.5644613838    -46.1371602124    -17.7460950405
 H    -29.5664738554    -47.7528545867    -18.0022949403
*

%EPRNMR
        GTENSOR   TRUE
        NUCLEI    = ALL H {AISO, ADIP, AORB}
        NUCLEI    = ALL C {AISO, ADIP, AORB}
END

