!B3LYP EPR-III Autoaux
!PAL4

* xyz 0 2
 C    -70.4223974452    -94.7070996565    -28.0909803091
 H    -69.7966701374    -95.6223327423    -28.1811443341
 H    -69.9842097408    -93.6300092113    -27.9817287147
 H    -71.4849629550    -94.8943382440    -28.1565890219
*

%EPRNMR
        GTENSOR   TRUE
        NUCLEI    = ALL H {AISO, ADIP, AORB}
        NUCLEI    = ALL C {AISO, ADIP, AORB}
END

