!B3LYP EPR-III Autoaux
!PAL4

* xyz 0 2
 C    -82.0270714410   -108.8431253517    -30.8630972056
 H    -83.0589909996   -108.4367332603    -30.8551264307
 H    -81.7614322563   -109.9336081291    -30.9492201863
 H    -81.0086393566   -108.3163916816    -30.7802112666
*

%EPRNMR
        GTENSOR   TRUE
        NUCLEI    = ALL H {AISO, ADIP, AORB}
        NUCLEI    = ALL C {AISO, ADIP, AORB}
END

