!B3LYP EPR-III Autoaux
!PAL4

* xyz 0 2
 C    -13.8753656713    -30.6722456482    -13.9732502557
 H    -13.5081284987    -29.7533506965    -14.3829940558
 H    -14.8943177868    -30.8061659264    -14.2049886833
 H    -13.2506085779    -31.3951946491    -13.4680316594
*

%EPRNMR
        GTENSOR   TRUE
        NUCLEI    = ALL H {AISO, ADIP, AORB}
        NUCLEI    = ALL C {AISO, ADIP, AORB}
END

