!B3LYP EPR-III Autoaux
!PAL4

* xyz 0 2
 C    -58.1604270488    -80.2883006147    -25.2237926206
 H    -57.6154312281    -79.3274640256    -25.1630114424
 H    -59.2785094276    -80.3126312094    -25.2027834526
 H    -57.5246256674    -81.1646424866    -25.2751503512
*

%EPRNMR
        GTENSOR   TRUE
        NUCLEI    = ALL H {AISO, ADIP, AORB}
        NUCLEI    = ALL C {AISO, ADIP, AORB}
END

