!B3LYP EPR-III Autoaux
!PAL4

* xyz 0 2
 C      3.1666232084    -11.2852258919     -9.5787060503
 H      2.3700888378    -11.9580704441     -9.7652746129
 H      3.9392806292    -11.0129120074    -10.2737805739
 H      3.1188509853    -10.8540575957     -8.6125098924
*

%EPRNMR
        GTENSOR   TRUE
        NUCLEI    = ALL H {AISO, ADIP, AORB}
        NUCLEI    = ALL C {AISO, ADIP, AORB}
END

