!B3LYP EPR-III Autoaux
!PAL4

* xyz 0 2
 C    -19.3041050547    -36.7393409809    -15.3901657155
 H    -19.8457563458    -35.8975187213    -15.6686073103
 H    -19.7214519504    -37.7807637094    -15.3245559486
 H    -18.2896011487    -36.5023187818    -15.0234288756
*

%EPRNMR
        GTENSOR   TRUE
        NUCLEI    = ALL H {AISO, ADIP, AORB}
        NUCLEI    = ALL C {AISO, ADIP, AORB}
END

