!B3LYP EPR-III Autoaux
!PAL4

* xyz 0 2
 C      6.9870157890     -6.9418109342     -8.5651891632
 H      6.4117203721     -7.4236776680     -7.7986949306
 H      8.0365841556     -7.2262113212     -8.8880022612
 H      6.3954985068     -6.2523915469     -9.1994790084
*

%EPRNMR
        GTENSOR   TRUE
        NUCLEI    = ALL H {AISO, ADIP, AORB}
        NUCLEI    = ALL C {AISO, ADIP, AORB}
END

