!B3LYP EPR-III Autoaux
!PAL4

* xyz 0 2
 C    -34.1580485495    -53.4706000626    -19.1615013354
 H    -34.0003470968    -54.5428700323    -19.1433086932
 H    -33.2563013498    -52.9778560486    -19.3027556944
 H    -35.1365251331    -53.0216921586    -19.1190498809
*

%EPRNMR
        GTENSOR   TRUE
        NUCLEI    = ALL H {AISO, ADIP, AORB}
        NUCLEI    = ALL C {AISO, ADIP, AORB}
END

