!B3LYP EPR-III Autoaux
!PAL4

* xyz 0 2
 C      1.9707406495    -12.6311231316     -9.8917261953
 H      2.2403964928    -12.1701305232     -8.9447654417
 H      1.1665243491    -12.4114219565    -10.5110782013
 H      2.5110970581    -13.5253744698    -10.0318941722
*

%EPRNMR
        GTENSOR   TRUE
        NUCLEI    = ALL H {AISO, ADIP, AORB}
        NUCLEI    = ALL C {AISO, ADIP, AORB}
END

