!B3LYP EPR-III Autoaux
!PAL4

* xyz 0 2
 C    -18.2672673369    -35.5627670712    -15.1086847002
 H    -17.6808074204    -34.7561790069    -15.3781397215
 H    -19.2877872871    -35.6013555680    -14.5716652287
 H    -17.7816455987    -36.5438910965    -15.4405645770
*

%EPRNMR
        GTENSOR   TRUE
        NUCLEI    = ALL H {AISO, ADIP, AORB}
        NUCLEI    = ALL C {AISO, ADIP, AORB}
END

