!B3LYP EPR-III Autoaux
!PAL4

* xyz 0 2
 C    -14.0952157995    -30.9403564530    -14.0474276058
 H    -14.1277551428    -29.8379139784    -14.2485444941
 H    -14.9728199086    -31.3753226756    -14.3501751687
 H    -13.3917228161    -31.4564366595    -13.4663401527
*

%EPRNMR
        GTENSOR   TRUE
        NUCLEI    = ALL H {AISO, ADIP, AORB}
        NUCLEI    = ALL C {AISO, ADIP, AORB}
END

