!B3LYP EPR-III Autoaux
!PAL4

* xyz 0 2
 C    -16.5726558132    -33.6891943867    -14.6911728127
 H    -16.2958335595    -34.7214651342    -14.2837217825
 H    -15.9237309249    -32.8808882461    -14.5972643584
 H    -17.5152477948    -33.4473283092    -15.0891438475
*

%EPRNMR
        GTENSOR   TRUE
        NUCLEI    = ALL H {AISO, ADIP, AORB}
        NUCLEI    = ALL C {AISO, ADIP, AORB}
END

