!B3LYP EPR-III Autoaux
!PAL4

* xyz 0 2
 C     12.3409946016     -0.8989846770     -7.2276257341
 H     13.2274741121     -1.3488421525     -6.7989433440
 H     11.8062790280     -0.1151555913     -6.6039470408
 H     12.1413874283     -0.9606104935     -8.3009590116
*

%EPRNMR
        GTENSOR   TRUE
        NUCLEI    = ALL H {AISO, ADIP, AORB}
        NUCLEI    = ALL C {AISO, ADIP, AORB}
END

