!B3LYP EPR-III Autoaux
!PAL4

* xyz 0 2
 C    -91.3522511676   -120.4566651205    -32.9172731733
 H    -91.9417508247   -121.4680396420    -33.0352890853
 H    -90.2024446261   -120.4158697404    -32.8659842156
 H    -92.0261855371   -119.6265238915    -32.8942094318
*

%EPRNMR
        GTENSOR   TRUE
        NUCLEI    = ALL H {AISO, ADIP, AORB}
        NUCLEI    = ALL C {AISO, ADIP, AORB}
END

