!B3LYP EPR-III Autoaux
!PAL4

* xyz 0 2
 C    -90.5830519033   -119.4690743061    -32.7631094324
 H    -91.5073851377   -119.9957847573    -32.8549646527
 H    -89.6757934431   -120.0239366923    -32.7744713063
 H    -90.4664569463   -118.4590164082    -32.6807316072
*

%EPRNMR
        GTENSOR   TRUE
        NUCLEI    = ALL H {AISO, ADIP, AORB}
        NUCLEI    = ALL C {AISO, ADIP, AORB}
END

