!B3LYP EPR-III Autoaux
!PAL4

* xyz 0 2
 C    -85.6399201492   -113.3228674004    -31.7227331831
 H    -84.6316891858   -113.8121680435    -31.7211617382
 H    -85.6411962230   -112.1840557577    -31.6165034587
 H    -86.5375000278   -113.9079400507    -31.8019941476
*

%EPRNMR
        GTENSOR   TRUE
        NUCLEI    = ALL H {AISO, ADIP, AORB}
        NUCLEI    = ALL C {AISO, ADIP, AORB}
END

