!B3LYP EPR-III Autoaux
!PAL4

* xyz 0 2
 C    -46.0229115977    -66.7788738258    -22.1630811746
 H    -47.1250131941    -66.8028216399    -22.1920845114
 H    -45.6877839321    -67.6973627000    -22.3568476578
 H    -45.4596090310    -65.8163032355    -22.0382333391
*

%EPRNMR
        GTENSOR   TRUE
        NUCLEI    = ALL H {AISO, ADIP, AORB}
        NUCLEI    = ALL C {AISO, ADIP, AORB}
END

