!B3LYP EPR-III Autoaux
!PAL4

* xyz 0 2
 C    -83.1915930060   -110.3222062208    -31.1569376217
 H    -84.0699330557   -110.9387069731    -31.2322434827
 H    -82.2839246881   -110.8310456697    -31.1558122058
 H    -83.3777680324   -109.2139735311    -31.0670854580
*

%EPRNMR
        GTENSOR   TRUE
        NUCLEI    = ALL H {AISO, ADIP, AORB}
        NUCLEI    = ALL C {AISO, ADIP, AORB}
END

