!B3LYP EPR-III Autoaux
!PAL4

* xyz 0 2
 C    -71.7315779420    -96.3183607983    -28.4000945296
 H    -70.6931569709    -96.0295601983    -28.3549487882
 H    -72.4720075358    -95.4219715024    -28.3262434029
 H    -72.0841462418    -97.3462418049    -28.4879210852
*

%EPRNMR
        GTENSOR   TRUE
        NUCLEI    = ALL H {AISO, ADIP, AORB}
        NUCLEI    = ALL C {AISO, ADIP, AORB}
END

