!B3LYP EPR-III Autoaux
!PAL4

* xyz 0 2
 C    -65.1469088017    -88.3653845539    -26.8907977296
 H    -64.4628839510    -87.5350211306    -26.8243273516
 H    -66.1496939041    -88.0765895284    -26.8686463200
 H    -64.8472838733    -89.3823316094    -26.9512280952
*

%EPRNMR
        GTENSOR   TRUE
        NUCLEI    = ALL H {AISO, ADIP, AORB}
        NUCLEI    = ALL C {AISO, ADIP, AORB}
END

