!B3LYP EPR-III Autoaux
!PAL4

* xyz 0 2
 C    -26.4184844911    -44.7745420482    -17.2203379484
 H    -27.4223783488    -45.0871195145    -17.2563929111
 H    -25.4412776114    -45.3682125557    -17.4217529732
 H    -26.2851443357    -43.7521462956    -16.8404154006
*

%EPRNMR
        GTENSOR   TRUE
        NUCLEI    = ALL H {AISO, ADIP, AORB}
        NUCLEI    = ALL C {AISO, ADIP, AORB}
END

