!B3LYP EPR-III Autoaux
!PAL4

* xyz 0 2
 C    -14.3540057642    -31.2087936934    -14.0957418758
 H    -14.6599894303    -30.1980861669    -14.1685729675
 H    -14.9667821148    -31.9230611766    -14.6868030362
 H    -13.3997239483    -31.4405592967    -13.5626726066
*

%EPRNMR
        GTENSOR   TRUE
        NUCLEI    = ALL H {AISO, ADIP, AORB}
        NUCLEI    = ALL C {AISO, ADIP, AORB}
END

