!B3LYP EPR-III Autoaux
!PAL4

* xyz 0 2
 C    -73.8342942619    -98.8479044061    -28.8939759997
 H    -74.3473479332    -97.9034291156    -28.8105856767
 H    -74.3673975591    -99.6979703909    -28.9859260168
 H    -72.7520026389    -99.0582748326    -28.8672826607
*

%EPRNMR
        GTENSOR   TRUE
        NUCLEI    = ALL H {AISO, ADIP, AORB}
        NUCLEI    = ALL C {AISO, ADIP, AORB}
END

