!B3LYP EPR-III Autoaux
!PAL4

* xyz 0 2
 C    -88.0436682751   -116.2983033269    -32.2513023500
 H    -88.0348969168   -115.2359847522    -32.1632343866
 H    -88.9954760547   -116.7811599116    -32.3367033915
 H    -87.1228228293   -116.9048323141    -32.2606716325
*

%EPRNMR
        GTENSOR   TRUE
        NUCLEI    = ALL H {AISO, ADIP, AORB}
        NUCLEI    = ALL C {AISO, ADIP, AORB}
END

