!B3LYP EPR-III Autoaux
!PAL4

* xyz 0 2
 C    -85.9693867677   -113.7332722637    -31.7961613877
 H    -84.9330568085   -113.9137654761    -31.7656060439
 H    -86.2524443594   -112.7153642059    -31.7143011022
 H    -86.6590135478   -114.5264227783    -31.8848005322
*

%EPRNMR
        GTENSOR   TRUE
        NUCLEI    = ALL H {AISO, ADIP, AORB}
        NUCLEI    = ALL C {AISO, ADIP, AORB}
END

