!B3LYP EPR-III Autoaux
!PAL4

* xyz 0 2
 C    -67.7116533419    -91.4289168996    -27.4754251673
 H    -68.8160099100    -91.3642076124    -27.4948440192
 H    -67.3428552480    -92.4010184412    -27.5834458512
 H    -67.0373994719    -90.4968647916    -27.3947795779
*

%EPRNMR
        GTENSOR   TRUE
        NUCLEI    = ALL H {AISO, ADIP, AORB}
        NUCLEI    = ALL C {AISO, ADIP, AORB}
END

