!B3LYP EPR-III Autoaux
!PAL4

* xyz 0 2
 C      3.9764411207    -10.3511966232     -9.3656890696
 H      4.4249398360     -9.5220232716     -9.9985302898
 H      3.0165805306    -10.6772711814     -9.3064958489
 H      4.7350246285    -10.6806161726     -8.6810466289
*

%EPRNMR
        GTENSOR   TRUE
        NUCLEI    = ALL H {AISO, ADIP, AORB}
        NUCLEI    = ALL C {AISO, ADIP, AORB}
END

