!B3LYP EPR-III Autoaux
!PAL4

* xyz 0 2
 C    -65.8186397282    -89.1462207430    -27.0484326036
 H    -65.6038527630    -88.1085337148    -26.9483674007
 H    -66.8547549006    -89.5337840883    -27.1011340303
 H    -64.9828313457    -89.8075930533    -27.0676634847
*

%EPRNMR
        GTENSOR   TRUE
        NUCLEI    = ALL H {AISO, ADIP, AORB}
        NUCLEI    = ALL C {AISO, ADIP, AORB}
END

