!B3LYP EPR-III Autoaux
!PAL4

* xyz 0 2
 C    -55.7828583953    -77.6461687926    -24.6263817985
 H    -55.1876100139    -78.5725959047    -24.7238752754
 H    -55.4262785319    -76.5764454493    -24.5176724496
 H    -56.8512924511    -77.7086634369    -24.6791792774
*

%EPRNMR
        GTENSOR   TRUE
        NUCLEI    = ALL H {AISO, ADIP, AORB}
        NUCLEI    = ALL C {AISO, ADIP, AORB}
END

