!B3LYP EPR-III Autoaux
!PAL4

* xyz 0 2
 C     11.9579032316     -1.3234807321     -7.3202332143
 H     11.9083880825     -0.2101723181     -7.0793469547
 H     11.7385645594     -2.1265857235     -6.6384745785
 H     12.3295231001     -1.5380174175     -8.3350935352
*

%EPRNMR
        GTENSOR   TRUE
        NUCLEI    = ALL H {AISO, ADIP, AORB}
        NUCLEI    = ALL C {AISO, ADIP, AORB}
END

