!B3LYP EPR-III Autoaux
!PAL4

* xyz 0 2
 C    -31.9091128299    -50.9404831213    -18.6028911491
 H    -32.8269366760    -50.3903052030    -18.7082481302
 H    -31.7759492911    -52.0421848756    -18.6480965880
 H    -30.9458503516    -50.4679951947    -18.4132237771
*

%EPRNMR
        GTENSOR   TRUE
        NUCLEI    = ALL H {AISO, ADIP, AORB}
        NUCLEI    = ALL C {AISO, ADIP, AORB}
END

