!B3LYP EPR-III Autoaux
!PAL4

* xyz 0 2
 C     -0.8051268381    -15.8218937347    -10.6039406427
 H     -1.3899511049    -15.1389007040    -11.1279225494
 H     -1.3671111864    -16.4956904669     -9.8931292665
 H      0.2223926539    -16.0698999403    -10.8008106207
*

%EPRNMR
        GTENSOR   TRUE
        NUCLEI    = ALL H {AISO, ADIP, AORB}
        NUCLEI    = ALL C {AISO, ADIP, AORB}
END

