!B3LYP EPR-III Autoaux
!PAL4

* xyz 0 2
 C    -72.9641164316    -97.8044953377    -28.6875453388
 H    -72.7088548129    -96.7326659136    -28.5915542980
 H    -74.0073303974    -98.0413449543    -28.7491466313
 H    -72.2645714595    -98.6774879248    -28.7383146654
*

%EPRNMR
        GTENSOR   TRUE
        NUCLEI    = ALL H {AISO, ADIP, AORB}
        NUCLEI    = ALL C {AISO, ADIP, AORB}
END

