!B3LYP EPR-III Autoaux
!PAL4

* xyz 0 2
 C    -71.4954865200    -95.9868078298    -28.3340418442
 H    -70.3979694495    -96.0191316099    -28.3472846567
 H    -71.8772940069    -94.9778366619    -28.2626132814
 H    -71.9176485703    -97.0397539624    -28.4551774384
*

%EPRNMR
        GTENSOR   TRUE
        NUCLEI    = ALL H {AISO, ADIP, AORB}
        NUCLEI    = ALL C {AISO, ADIP, AORB}
END

