!B3LYP EPR-III Autoaux
!PAL4

* xyz 0 2
 C    -69.7778392031    -93.9259430574    -27.9450228327
 H    -69.7347072189    -94.9840404865    -28.0405902563
 H    -68.8837977774    -93.2851326911    -27.8587165696
 H    -70.7393541143    -93.5477993711    -27.9495266826
*

%EPRNMR
        GTENSOR   TRUE
        NUCLEI    = ALL H {AISO, ADIP, AORB}
        NUCLEI    = ALL C {AISO, ADIP, AORB}
END

