!B3LYP EPR-III Autoaux
!PAL4

* xyz 0 2
 C    -64.2615067926    -87.3100200413    -26.6851275902
 H    -63.1716498296    -87.2088525438    -26.6765866573
 H    -64.7254459819    -86.2480204888    -26.5516178333
 H    -64.6316284701    -88.3095943968    -26.7596980339
*

%EPRNMR
        GTENSOR   TRUE
        NUCLEI    = ALL H {AISO, ADIP, AORB}
        NUCLEI    = ALL C {AISO, ADIP, AORB}
END

