!B3LYP EPR-III Autoaux
!PAL4

* xyz 0 2
 C    -93.8296503744   -123.6100792955    -33.4339564335
 H    -92.7503075748   -123.6452318613    -33.3925137885
 H    -94.3018715646   -122.6699829094    -33.3920328315
 H    -94.1834354600   -124.5547469621    -33.5214216070
*

%EPRNMR
        GTENSOR   TRUE
        NUCLEI    = ALL H {AISO, ADIP, AORB}
        NUCLEI    = ALL C {AISO, ADIP, AORB}
END

