!B3LYP EPR-III Autoaux
!PAL4

* xyz 0 2
 C    -66.3275103778    -89.7678301542    -27.1681431122
 H    -66.6987308559    -88.7556928361    -27.0718820982
 H    -67.1351227154    -90.5765463748    -27.2580566234
 H    -65.3309526779    -90.0716600599    -27.1527631075
*

%EPRNMR
        GTENSOR   TRUE
        NUCLEI    = ALL H {AISO, ADIP, AORB}
        NUCLEI    = ALL C {AISO, ADIP, AORB}
END

