!B3LYP EPR-III Autoaux
!PAL4

* xyz 0 2
 C    -87.5983457255   -115.7490661186    -32.1542620548
 H    -87.2026159424   -114.7236079261    -32.0437186304
 H    -88.6814445936   -115.9516121508    -32.2132471121
 H    -87.0472465370   -116.6739126942    -32.1981177926
*

%EPRNMR
        GTENSOR   TRUE
        NUCLEI    = ALL H {AISO, ADIP, AORB}
        NUCLEI    = ALL C {AISO, ADIP, AORB}
END

