!B3LYP EPR-III Autoaux
!PAL4

* xyz 0 2
 C    -28.3639111805    -46.9546939805    -17.7096338772
 H    -27.5040572191    -47.7197984300    -17.5261087019
 H    -27.9984376732    -45.9605856831    -17.7052086641
 H    -29.4462513020    -47.1645877260    -17.8263798180
*

%EPRNMR
        GTENSOR   TRUE
        NUCLEI    = ALL H {AISO, ADIP, AORB}
        NUCLEI    = ALL C {AISO, ADIP, AORB}
END

