!B3LYP EPR-III Autoaux
!PAL4

* xyz 0 2
 C    -80.2784383974   -106.7349950569    -30.4418868811
 H    -80.0097889349   -105.7122014390    -30.3485762161
 H    -81.3535864063   -106.9740504626    -30.5187386347
 H    -79.6299726652   -107.5306157281    -30.4878590362
*

%EPRNMR
        GTENSOR   TRUE
        NUCLEI    = ALL H {AISO, ADIP, AORB}
        NUCLEI    = ALL C {AISO, ADIP, AORB}
END

