!B3LYP EPR-III Autoaux
!PAL4

* xyz 0 2
 C    -75.4988663155   -100.8731157030    -29.2834867184
 H    -76.5110006780   -101.1916059661    -29.3430164318
 H    -74.7122947427   -101.4851633897    -29.3300862930
 H    -75.1387036589    -99.8519060180    -29.2057130220
*

%EPRNMR
        GTENSOR   TRUE
        NUCLEI    = ALL H {AISO, ADIP, AORB}
        NUCLEI    = ALL C {AISO, ADIP, AORB}
END

