!B3LYP EPR-III Autoaux
!PAL4

* xyz 0 2
 C    -33.3202409219    -52.5516014313    -18.9568490830
 H    -34.0425082188    -53.2451541113    -18.9422113390
 H    -32.2082798442    -52.6431497339    -19.1655100309
 H    -33.6213982336    -51.5639552041    -18.7385288036
*

%EPRNMR
        GTENSOR   TRUE
        NUCLEI    = ALL H {AISO, ADIP, AORB}
        NUCLEI    = ALL C {AISO, ADIP, AORB}
END

