!B3LYP EPR-III Autoaux
!PAL4

* xyz 0 2
 C    -82.9257048002   -109.9696126766    -31.0839413092
 H    -83.9242962344   -110.4087007877    -31.1633614883
 H    -82.0571609533   -110.5780042386    -31.1121134055
 H    -82.6014089607   -108.8587795398    -30.9916810525
*

%EPRNMR
        GTENSOR   TRUE
        NUCLEI    = ALL H {AISO, ADIP, AORB}
        NUCLEI    = ALL C {AISO, ADIP, AORB}
END

