!B3LYP EPR-III Autoaux
!PAL4

* xyz 0 2
 C    -58.1581362249    -80.2848452584    -25.2230201944
 H    -57.6171938888    -79.3279085824    -25.1617366449
 H    -59.2556542974    -80.2925606252    -25.2003588773
 H    -57.5162726560    -81.1620471219    -25.2738880781
*

%EPRNMR
        GTENSOR   TRUE
        NUCLEI    = ALL H {AISO, ADIP, AORB}
        NUCLEI    = ALL C {AISO, ADIP, AORB}
END

