!B3LYP EPR-III Autoaux
!PAL4

* xyz 0 2
 C    -57.5562966331    -79.6067406708    -25.0673132034
 H    -56.6664761228    -78.9655004766    -25.0639355827
 H    -58.3993746493    -79.0156513724    -24.9892326424
 H    -57.4146995856    -80.7461601551    -25.1689204718
*

%EPRNMR
        GTENSOR   TRUE
        NUCLEI    = ALL H {AISO, ADIP, AORB}
        NUCLEI    = ALL C {AISO, ADIP, AORB}
END

