!B3LYP EPR-III Autoaux
!PAL4

* xyz 0 2
 C    -67.5914701084    -91.2759518133    -27.4491349413
 H    -68.6278466385    -90.9809273610    -27.4266799242
 H    -67.2124794145    -92.2596568965    -27.5451435760
 H    -66.8049972390    -90.4627177335    -27.3599108006
*

%EPRNMR
        GTENSOR   TRUE
        NUCLEI    = ALL H {AISO, ADIP, AORB}
        NUCLEI    = ALL C {AISO, ADIP, AORB}
END

