!B3LYP EPR-III Autoaux
!PAL4

* xyz 0 2
 C      6.5266296687     -7.4639931814     -8.6889088886
 H      6.9941856816     -8.2856635801     -8.3498604121
 H      6.5524975957     -6.4613303204     -8.2097507705
 H      6.0420431626     -7.5741447113     -9.6249230586
*

%EPRNMR
        GTENSOR   TRUE
        NUCLEI    = ALL H {AISO, ADIP, AORB}
        NUCLEI    = ALL C {AISO, ADIP, AORB}
END

