!B3LYP EPR-III Autoaux
!PAL4

* xyz 0 2
 C    -56.9330392414    -78.9025202549    -24.9096402967
 H    -55.8510837369    -78.8784216040    -24.9734099393
 H    -57.4204578658    -77.9264781629    -24.7946011734
 H    -57.3512499681    -79.9383746895    -25.0354738295
*

%EPRNMR
        GTENSOR   TRUE
        NUCLEI    = ALL H {AISO, ADIP, AORB}
        NUCLEI    = ALL C {AISO, ADIP, AORB}
END

