!B3LYP EPR-III Autoaux
!PAL4

* xyz 0 2
 C     -6.2956836756    -22.0699259375    -12.0222757733
 H     -5.6867593189    -21.2599880276    -12.4141555903
 H     -6.9614877663    -22.0148199460    -11.1630878810
 H     -6.2020289951    -23.0299306933    -12.4384907594
*

%EPRNMR
        GTENSOR   TRUE
        NUCLEI    = ALL H {AISO, ADIP, AORB}
        NUCLEI    = ALL C {AISO, ADIP, AORB}
END

