!B3LYP EPR-III Autoaux
!PAL4

* xyz 0 2
 C     -9.8112251210    -26.0710509081    -12.9353198087
 H     -9.3734144365    -25.4461703289    -12.2145182849
 H    -10.8286177417    -25.7987067117    -13.3791582382
 H     -9.4299869386    -27.0801150074    -13.2739153840
*

%EPRNMR
        GTENSOR   TRUE
        NUCLEI    = ALL H {AISO, ADIP, AORB}
        NUCLEI    = ALL C {AISO, ADIP, AORB}
END

