!B3LYP EPR-III Autoaux
!PAL4

* xyz 0 2
 C     12.6022894301     -0.6266926546     -7.1846322451
 H     12.3092559322     -1.4837953326     -6.4853588307
 H     13.1769622509      0.2068786471     -6.7587485437
 H     12.0584043831     -0.4595369654     -8.0963961825
*

%EPRNMR
        GTENSOR   TRUE
        NUCLEI    = ALL H {AISO, ADIP, AORB}
        NUCLEI    = ALL C {AISO, ADIP, AORB}
END

