!B3LYP EPR-III Autoaux
!PAL4

* xyz 0 2
 C     -0.6545482372    -15.6650516680    -10.5773131372
 H     -0.9663605901    -14.6309594355    -10.9358140266
 H     -1.2256685820    -16.0091217885     -9.7064637444
 H      0.1975580706    -16.2628316637    -10.8837686554
*

%EPRNMR
        GTENSOR   TRUE
        NUCLEI    = ALL H {AISO, ADIP, AORB}
        NUCLEI    = ALL C {AISO, ADIP, AORB}
END

