!B3LYP EPR-III Autoaux
!PAL4

* xyz 0 2
 C    -51.0401782900    -72.3512783935    -23.4242361657
 H    -50.6127369143    -71.3807597042    -23.3880441337
 H    -52.0963364631    -72.5716033853    -23.3503568724
 H    -50.3225117213    -73.1099047253    -23.4574886204
*

%EPRNMR
        GTENSOR   TRUE
        NUCLEI    = ALL H {AISO, ADIP, AORB}
        NUCLEI    = ALL C {AISO, ADIP, AORB}
END

