!B3LYP EPR-III Autoaux
!PAL4

* xyz 0 2
 C    -33.7653667991    -53.0308658294    -19.0709856698
 H    -34.0305443164    -54.0152778467    -19.0231344546
 H    -32.6653292028    -52.8836870118    -19.2380087088
 H    -34.5141835832    -52.3094941194    -18.8933641717
*

%EPRNMR
        GTENSOR   TRUE
        NUCLEI    = ALL H {AISO, ADIP, AORB}
        NUCLEI    = ALL C {AISO, ADIP, AORB}
END

