!B3LYP EPR-III Autoaux
!PAL4

* xyz 0 2
 C    -73.6069696076    -98.6063238262    -28.8403817087
 H    -73.9059705486    -97.5681974592    -28.7687466098
 H    -74.4855166866    -99.2843960369    -28.9512191545
 H    -72.5768377386    -98.7832150379    -28.8310821074
*

%EPRNMR
        GTENSOR   TRUE
        NUCLEI    = ALL H {AISO, ADIP, AORB}
        NUCLEI    = ALL C {AISO, ADIP, AORB}
END

