!B3LYP EPR-III Autoaux
!PAL4

* xyz 0 2
 C     10.3055916310     -3.1723997838     -7.7306292601
 H      9.9472290664     -3.1175879611     -8.6850042835
 H     10.5916524598     -4.1571759429     -7.4237785177
 H     10.5476953766     -2.3177887607     -7.1462993769
*

%EPRNMR
        GTENSOR   TRUE
        NUCLEI    = ALL H {AISO, ADIP, AORB}
        NUCLEI    = ALL C {AISO, ADIP, AORB}
END

