!B3LYP EPR-III Autoaux
!PAL4

* xyz 0 2
 C    -18.8637781418    -36.2539836657    -15.2684641060
 H    -19.0086518054    -35.2278586302    -15.5979707752
 H    -19.7051345049    -36.8574105172    -15.0121377875
 H    -17.8558531196    -36.5614574852    -15.1708343973
*

%EPRNMR
        GTENSOR   TRUE
        NUCLEI    = ALL H {AISO, ADIP, AORB}
        NUCLEI    = ALL C {AISO, ADIP, AORB}
END

