!B3LYP EPR-III Autoaux
!PAL4

* xyz 0 2
 C    -56.6405393343    -78.5876942331    -24.8452710174
 H    -55.5912011313    -78.8658837789    -24.9060035999
 H    -57.0039469456    -77.5245873138    -24.6983124677
 H    -57.3574247258    -79.4513226621    -24.9432373674
*

%EPRNMR
        GTENSOR   TRUE
        NUCLEI    = ALL H {AISO, ADIP, AORB}
        NUCLEI    = ALL C {AISO, ADIP, AORB}
END

