!B3LYP EPR-III Autoaux
!PAL4

* xyz 0 2
 C    -58.4737958174    -80.6453001373    -25.3038655393
 H    -58.2376181146    -79.5824379628    -25.2194647328
 H    -59.5420210077    -80.9011428675    -25.3121344226
 H    -57.5872756867    -81.3213845205    -25.3262159904
*

%EPRNMR
        GTENSOR   TRUE
        NUCLEI    = ALL H {AISO, ADIP, AORB}
        NUCLEI    = ALL C {AISO, ADIP, AORB}
END

