!B3LYP EPR-III Autoaux
!PAL4

* xyz 0 2
 C    -16.6536592902    -33.7575246395    -14.7050870187
 H    -16.2408985411    -34.7732234927    -14.3687659366
 H    -15.9860959151    -32.9555908936    -14.5431795168
 H    -17.6142301881    -33.7050710260    -15.1773069454
*

%EPRNMR
        GTENSOR   TRUE
        NUCLEI    = ALL H {AISO, ADIP, AORB}
        NUCLEI    = ALL C {AISO, ADIP, AORB}
END

