!B3LYP EPR-III Autoaux
!PAL4

* xyz 0 2
 C    -11.7954996097    -28.3178123035    -13.4565464277
 H    -12.2930264978    -29.2879733319    -13.6336944108
 H    -10.9718797520    -28.3214872200    -12.8232447736
 H    -12.3087632162    -27.4609227127    -13.8233429001
*

%EPRNMR
        GTENSOR   TRUE
        NUCLEI    = ALL H {AISO, ADIP, AORB}
        NUCLEI    = ALL C {AISO, ADIP, AORB}
END

