!B3LYP EPR-III Autoaux
!PAL4

* xyz 0 2
 C    -70.8566854820    -95.2714523205    -28.2038828648
 H    -69.8824758433    -95.7869797209    -28.2218088423
 H    -70.9874492623    -94.0718525132    -28.0574432573
 H    -71.8541728804    -95.6388939972    -28.2398388152
*

%EPRNMR
        GTENSOR   TRUE
        NUCLEI    = ALL H {AISO, ADIP, AORB}
        NUCLEI    = ALL C {AISO, ADIP, AORB}
END

