!B3LYP EPR-III Autoaux
!PAL4

* xyz 0 2
 C    -55.9094887879    -77.7586284805    -24.6562239679
 H    -55.2007279712    -78.5467966221    -24.7436306971
 H    -55.5111085347    -76.8208669012    -24.5473447885
 H    -56.9613206126    -78.0558478023    -24.7243600770
*

%EPRNMR
        GTENSOR   TRUE
        NUCLEI    = ALL H {AISO, ADIP, AORB}
        NUCLEI    = ALL C {AISO, ADIP, AORB}
END

