!B3LYP EPR-III Autoaux
!PAL4

* xyz 0 2
 C     -3.4811310647    -18.8816035431    -11.2714270508
 H     -3.6112285466    -17.9610741011    -10.6949545662
 H     -4.2275762572    -18.9918383734    -12.0830798544
 H     -2.6276943867    -19.6108355915    -11.2757334545
*

%EPRNMR
        GTENSOR   TRUE
        NUCLEI    = ALL H {AISO, ADIP, AORB}
        NUCLEI    = ALL C {AISO, ADIP, AORB}
END

