!B3LYP EPR-III Autoaux
!PAL4

* xyz 0 2
 C    -36.8651836623    -56.5172696665    -19.8501558969
 H    -36.2807590372    -55.5578029311    -19.8652350514
 H    -37.8478951366    -56.4228314307    -19.6616116441
 H    -36.2952143047    -57.4143719605    -20.0175036432
*

%EPRNMR
        GTENSOR   TRUE
        NUCLEI    = ALL H {AISO, ADIP, AORB}
        NUCLEI    = ALL C {AISO, ADIP, AORB}
END

