!B3LYP EPR-III Autoaux
!PAL4

* xyz 0 2
 C    -22.3608470499    -40.1799735779    -16.1608822199
 H    -21.5599176140    -40.8320044789    -15.9569522785
 H    -22.2105671100    -39.0998321526    -16.1999947641
 H    -23.2712978934    -40.6802657408    -16.4415429964
*

%EPRNMR
        GTENSOR   TRUE
        NUCLEI    = ALL H {AISO, ADIP, AORB}
        NUCLEI    = ALL C {AISO, ADIP, AORB}
END

