!B3LYP EPR-III Autoaux
!PAL4

* xyz 0 2
 C     -9.9978538993    -26.2635400034    -12.9737070507
 H     -9.5356006131    -25.5774947247    -12.2457388720
 H    -10.9503021868    -26.2307757876    -13.3989358849
 H     -9.2780074416    -26.8917639316    -13.3750558024
*

%EPRNMR
        GTENSOR   TRUE
        NUCLEI    = ALL H {AISO, ADIP, AORB}
        NUCLEI    = ALL C {AISO, ADIP, AORB}
END

