!B3LYP EPR-III Autoaux
!PAL4

* xyz 0 2
 C     -9.2066530240    -25.4026318253    -12.7872898434
 H     -8.2156314553    -25.3622709794    -12.4655261238
 H     -9.5807278664    -24.5497449069    -13.3153427307
 H     -9.9733143131    -26.1060675457    -12.4881404891
*

%EPRNMR
        GTENSOR   TRUE
        NUCLEI    = ALL H {AISO, ADIP, AORB}
        NUCLEI    = ALL C {AISO, ADIP, AORB}
END

