!B3LYP EPR-III Autoaux
!PAL4

* xyz 0 2
 C    -55.0991373240    -76.8954255784    -24.4501394161
 H    -55.0929985397    -77.9598252726    -24.5113169198
 H    -54.2464708311    -76.1920625508    -24.4093594153
 H    -56.0006805175    -76.2903958457    -24.4359170573
*

%EPRNMR
        GTENSOR   TRUE
        NUCLEI    = ALL H {AISO, ADIP, AORB}
        NUCLEI    = ALL C {AISO, ADIP, AORB}
END

