!B3LYP EPR-III Autoaux
!PAL4

* xyz 0 2
 C    -92.6584120593   -122.1216759849    -33.1822573159
 H    -92.0444232260   -122.9946327280    -33.2217517200
 H    -92.2551310214   -121.1216713085    -33.0753844682
 H    -93.7783374466   -122.1696775840    -33.2454710470
*

%EPRNMR
        GTENSOR   TRUE
        NUCLEI    = ALL H {AISO, ADIP, AORB}
        NUCLEI    = ALL C {AISO, ADIP, AORB}
END

