!B3LYP EPR-III Autoaux
!PAL4

* xyz 0 2
 C    -24.6609333981    -42.8163678903    -16.7793574342
 H    -25.0496184848    -41.7671690399    -16.8513194336
 H    -25.5604996352    -43.4353033804    -16.5182521247
 H    -23.6090837061    -43.1181913347    -16.7910364842
*

%EPRNMR
        GTENSOR   TRUE
        NUCLEI    = ALL H {AISO, ADIP, AORB}
        NUCLEI    = ALL C {AISO, ADIP, AORB}
END

