!B3LYP EPR-III Autoaux
!PAL4

* xyz 0 2
 C    -11.4474352005    -27.9205679650    -13.3596688905
 H    -12.4157554913    -28.4341669421    -13.2526226394
 H    -10.5432820745    -28.3734635831    -12.8978993151
 H    -11.4817245881    -27.0034998103    -13.9366325512
*

%EPRNMR
        GTENSOR   TRUE
        NUCLEI    = ALL H {AISO, ADIP, AORB}
        NUCLEI    = ALL C {AISO, ADIP, AORB}
END

