!B3LYP EPR-III Autoaux
!PAL4

* xyz 0 2
 C    -45.3882461042    -66.0472911169    -22.0127537115
 H    -46.2056039133    -65.3537204904    -21.9587237785
 H    -45.4344524192    -67.1537770804    -22.1067701523
 H    -44.4121213601    -65.6117317424    -21.8767977128
*

%EPRNMR
        GTENSOR   TRUE
        NUCLEI    = ALL H {AISO, ADIP, AORB}
        NUCLEI    = ALL C {AISO, ADIP, AORB}
END

