!B3LYP EPR-III Autoaux
!PAL4

* xyz 0 2
 C    -90.2197888282   -119.0090838594    -32.6885118930
 H    -91.2828342310   -119.2194051398    -32.7596950074
 H    -89.4723398334   -119.7846094271    -32.7249332489
 H    -89.7762407974   -118.0860065517    -32.5943120856
*

%EPRNMR
        GTENSOR   TRUE
        NUCLEI    = ALL H {AISO, ADIP, AORB}
        NUCLEI    = ALL C {AISO, ADIP, AORB}
END

