!B3LYP EPR-III Autoaux
!PAL4

* xyz 0 2
 C    -41.9227979479    -62.1582108167    -21.1358922749
 H    -41.0318884237    -62.8382263682    -21.1238095479
 H    -41.7328036398    -61.1303855398    -21.0098397260
 H    -42.8884982916    -62.6712215869    -21.2624069026
*

%EPRNMR
        GTENSOR   TRUE
        NUCLEI    = ALL H {AISO, ADIP, AORB}
        NUCLEI    = ALL C {AISO, ADIP, AORB}
END

