!B3LYP EPR-III Autoaux
!PAL4

* xyz 0 2
 C    -89.8252147458   -118.5497957618    -32.6147726131
 H    -90.9093837110   -118.3977511337    -32.6419082987
 H    -89.5180020699   -119.5866610907    -32.6805185821
 H    -89.2033416754   -117.5638087968    -32.4923975602
*

%EPRNMR
        GTENSOR   TRUE
        NUCLEI    = ALL H {AISO, ADIP, AORB}
        NUCLEI    = ALL C {AISO, ADIP, AORB}
END

