!B3LYP EPR-III Autoaux
!PAL4

* xyz 0 2
 C    -50.2653533016    -71.4963648856    -23.2294094797
 H    -49.3143641115    -70.9207546672    -23.2231405906
 H    -51.2296369346    -70.8597869588    -23.0504868605
 H    -50.1447319590    -72.5685671691    -23.3267907524
*

%EPRNMR
        GTENSOR   TRUE
        NUCLEI    = ALL H {AISO, ADIP, AORB}
        NUCLEI    = ALL C {AISO, ADIP, AORB}
END

