!B3LYP EPR-III Autoaux
!PAL4

* xyz 0 2
 C     -1.3036645123    -16.3933810925    -10.7400212688
 H     -2.0860623883    -16.3771007381    -11.4179764501
 H     -1.0343042460    -17.4242718714    -10.4361055698
 H     -0.8980215220    -15.5604366347    -10.2394808286
*

%EPRNMR
        GTENSOR   TRUE
        NUCLEI    = ALL H {AISO, ADIP, AORB}
        NUCLEI    = ALL C {AISO, ADIP, AORB}
END

