!B3LYP EPR-III Autoaux
!PAL4

* xyz 0 2
 C    -55.4990385427    -77.2968851918    -24.5537122962
 H    -55.0599331590    -78.3345036415    -24.6094176001
 H    -54.7260570124    -76.5534101608    -24.4546213297
 H    -56.6305159336    -77.2298974113    -24.5679617051
*

%EPRNMR
        GTENSOR   TRUE
        NUCLEI    = ALL H {AISO, ADIP, AORB}
        NUCLEI    = ALL C {AISO, ADIP, AORB}
END

