!B3LYP EPR-III Autoaux
!PAL4

* xyz 0 2
 C    -87.8600732474   -116.0740139846    -32.2104347956
 H    -87.6126702973   -115.0118067345    -32.1128192420
 H    -88.9120148957   -116.4040683114    -32.2901564189
 H    -87.0383910242   -116.7101171821    -32.2290151861
*

%EPRNMR
        GTENSOR   TRUE
        NUCLEI    = ALL H {AISO, ADIP, AORB}
        NUCLEI    = ALL C {AISO, ADIP, AORB}
END

