!B3LYP EPR-III Autoaux
!PAL4

* xyz 0 2
 C    -85.8275224807   -113.5430747376    -31.7606429569
 H    -84.8159812678   -113.9143795123    -31.7620341823
 H    -85.9614283399   -112.4592058531    -31.6781513130
 H    -86.5242290146   -114.2838999836    -31.8576858594
*

%EPRNMR
        GTENSOR   TRUE
        NUCLEI    = ALL H {AISO, ADIP, AORB}
        NUCLEI    = ALL C {AISO, ADIP, AORB}
END

