!B3LYP EPR-III Autoaux
!PAL4

* xyz 0 2
 C    -16.0063111380    -33.0661175710    -14.5355740875
 H    -16.4651136487    -33.9913884833    -14.0383138702
 H    -15.0755283641    -32.9386041449    -14.9185476793
 H    -16.6251884890    -32.2553303469    -14.6743088511
*

%EPRNMR
        GTENSOR   TRUE
        NUCLEI    = ALL H {AISO, ADIP, AORB}
        NUCLEI    = ALL C {AISO, ADIP, AORB}
END

