!B3LYP EPR-III Autoaux
!PAL4

* xyz 0 2
 C    -38.1015390627    -57.9108920825    -20.1720315570
 H    -38.6536184246    -57.0136493228    -20.1713238126
 H    -38.5765636900    -58.8793696955    -20.1534989379
 H    -37.0689886472    -57.7748693894    -20.0754536897
*

%EPRNMR
        GTENSOR   TRUE
        NUCLEI    = ALL H {AISO, ADIP, AORB}
        NUCLEI    = ALL C {AISO, ADIP, AORB}
END

