!B3LYP EPR-III Autoaux
!PAL4

* xyz 0 2
 C    -11.5519153962    -28.0191826535    -13.3740049978
 H    -12.3637633722    -28.6863361982    -13.3675030991
 H    -10.5451386195    -28.2960357807    -12.9428204125
 H    -11.5317032159    -27.0662191354    -13.9243411046
*

%EPRNMR
        GTENSOR   TRUE
        NUCLEI    = ALL H {AISO, ADIP, AORB}
        NUCLEI    = ALL C {AISO, ADIP, AORB}
END

