!B3LYP EPR-III Autoaux
!PAL4

* xyz 0 2
 C    -31.4996210755    -50.5085524615    -18.5040301548
 H    -32.1796861601    -49.6702867470    -18.6026994152
 H    -31.9704970663    -51.5708535247    -18.4835315911
 H    -30.4531068913    -50.2573680028    -18.4066316349
*

%EPRNMR
        GTENSOR   TRUE
        NUCLEI    = ALL H {AISO, ADIP, AORB}
        NUCLEI    = ALL C {AISO, ADIP, AORB}
END

