!B3LYP EPR-III Autoaux
!PAL4

* xyz 0 2
 C    -55.8087133781    -77.6789407256    -24.6332301546
 H    -55.1962257555    -78.5182766463    -24.7253822953
 H    -55.4979937542    -76.6667099974    -24.5328103483
 H    -56.8631291266    -77.7257369120    -24.6857182488
*

%EPRNMR
        GTENSOR   TRUE
        NUCLEI    = ALL H {AISO, ADIP, AORB}
        NUCLEI    = ALL C {AISO, ADIP, AORB}
END

