!B3LYP EPR-III Autoaux
!PAL4

* xyz 0 2
 C    -48.8800019576    -69.9567887253    -22.8838592071
 H    -48.0867642698    -70.6765252164    -22.9310874304
 H    -48.8341808052    -68.9294926157    -22.7569417161
 H    -49.8995775058    -70.3560368910    -22.9599331783
*

%EPRNMR
        GTENSOR   TRUE
        NUCLEI    = ALL H {AISO, ADIP, AORB}
        NUCLEI    = ALL C {AISO, ADIP, AORB}
END

