!B3LYP EPR-III Autoaux
!PAL4

* xyz 0 2
 C    -45.6853361827    -66.4033492553    -22.0851517737
 H    -46.6858867882    -66.0445778400    -22.0600451287
 H    -45.5986942104    -67.4280587394    -22.2381353235
 H    -44.9394901697    -65.6605386386    -21.9509506581
*

%EPRNMR
        GTENSOR   TRUE
        NUCLEI    = ALL H {AISO, ADIP, AORB}
        NUCLEI    = ALL C {AISO, ADIP, AORB}
END

