!B3LYP EPR-III Autoaux
!PAL4

* xyz 0 2
 C      9.5164096810     -4.1110972680     -7.9415697404
 H     10.3133258667     -3.8417308492     -8.6070792728
 H      8.4945380737     -3.5349562779     -8.1277288516
 H      9.6642643769     -4.6265079627     -6.9600150719
*

%EPRNMR
        GTENSOR   TRUE
        NUCLEI    = ALL H {AISO, ADIP, AORB}
        NUCLEI    = ALL C {AISO, ADIP, AORB}
END

