!B3LYP EPR-III Autoaux
!PAL4

* xyz 0 2
 C    -79.4924933989   -105.7874479208    -30.2549155407
 H    -78.6773532809   -105.1585031281    -30.1727387203
 H    -80.5057826125   -105.3522166077    -30.2484793260
 H    -79.5401194622   -106.7728904304    -30.3268077501
*

%EPRNMR
        GTENSOR   TRUE
        NUCLEI    = ALL H {AISO, ADIP, AORB}
        NUCLEI    = ALL C {AISO, ADIP, AORB}
END

