!B3LYP EPR-III Autoaux
!PAL4

* xyz 0 2
 C      8.6668453931     -5.0360404646     -8.1388079260
 H      8.1921441714     -5.9981045042     -8.1916423981
 H      9.2304894006     -4.7076781156     -9.0492229340
 H      8.6763830090     -4.4303301427     -7.2217722291
*

%EPRNMR
        GTENSOR   TRUE
        NUCLEI    = ALL H {AISO, ADIP, AORB}
        NUCLEI    = ALL C {AISO, ADIP, AORB}
END

