!B3LYP EPR-III Autoaux
!PAL4

* xyz 0 2
 C     -3.6430273859    -19.0531284805    -11.3274833824
 H     -4.0484556532    -18.3804435260    -10.5630320484
 H     -4.3256036463    -19.4664562624    -12.0735917886
 H     -2.5966313596    -19.4456109565    -11.3819566066
*

%EPRNMR
        GTENSOR   TRUE
        NUCLEI    = ALL H {AISO, ADIP, AORB}
        NUCLEI    = ALL C {AISO, ADIP, AORB}
END

