!B3LYP EPR-III Autoaux
!PAL4

* xyz 0 2
 C    -84.0603648769   -111.3890355431    -31.3595968536
 H    -84.3446147990   -112.4469395482    -31.4536849745
 H    -83.0289957852   -111.1778288877    -31.2881614386
 H    -85.0291198090   -110.7352372582    -31.3406259133
*

%EPRNMR
        GTENSOR   TRUE
        NUCLEI    = ALL H {AISO, ADIP, AORB}
        NUCLEI    = ALL C {AISO, ADIP, AORB}
END

