!B3LYP EPR-III Autoaux
!PAL4

* xyz 0 2
 C    -93.9740395689   -123.8490851595    -33.4703120400
 H    -92.9689934231   -123.6009084189    -33.4135381601
 H    -94.7315420727   -123.0909568772    -33.4635791740
 H    -94.5069921884   -124.8482352847    -33.5723982255
*

%EPRNMR
        GTENSOR   TRUE
        NUCLEI    = ALL H {AISO, ADIP, AORB}
        NUCLEI    = ALL C {AISO, ADIP, AORB}
END

