!B3LYP EPR-III Autoaux
!PAL4

* xyz 0 2
 C    -28.4703074676    -47.0589888527    -17.7288301192
 H    -27.6143091119    -47.8253420927    -17.5987452692
 H    -28.1976359279    -46.0617029513    -17.7320895981
 H    -29.4581480237    -47.5050758940    -17.9043189592
*

%EPRNMR
        GTENSOR   TRUE
        NUCLEI    = ALL H {AISO, ADIP, AORB}
        NUCLEI    = ALL C {AISO, ADIP, AORB}
END

