!B3LYP EPR-III Autoaux
!PAL4

* xyz 0 2
 C    -56.4466884440    -78.3843536998    -24.8048586248
 H    -55.4531645869    -78.7811689704    -24.8497750167
 H    -56.7053584009    -77.4062425565    -24.6490381308
 H    -57.3418937676    -78.9841934649    -24.8496868036
*

%EPRNMR
        GTENSOR   TRUE
        NUCLEI    = ALL H {AISO, ADIP, AORB}
        NUCLEI    = ALL C {AISO, ADIP, AORB}
END

