!B3LYP EPR-III Autoaux
!PAL4

* xyz 0 2
 C    -44.9877354357    -65.6289595750    -21.9069622523
 H    -45.6545958096    -64.7548872822    -21.9290798817
 H    -45.5984119661    -66.5428236341    -22.0111782812
 H    -43.8996923268    -65.4657242874    -21.8618057573
*

%EPRNMR
        GTENSOR   TRUE
        NUCLEI    = ALL H {AISO, ADIP, AORB}
        NUCLEI    = ALL C {AISO, ADIP, AORB}
END

