!B3LYP EPR-III Autoaux
!PAL4

* xyz 0 2
 C    -81.8685065174   -108.7072237695    -30.8342345798
 H    -82.7824927349   -108.0949993669    -30.7919339426
 H    -81.9716552988   -109.7775011415    -30.9241911888
 H    -80.9625358705   -107.9725376081    -30.7248152943
*

%EPRNMR
        GTENSOR   TRUE
        NUCLEI    = ALL H {AISO, ADIP, AORB}
        NUCLEI    = ALL C {AISO, ADIP, AORB}
END

