!B3LYP EPR-III Autoaux
!PAL4

* xyz 0 2
 C     12.1125400081     -1.1464503769     -7.2971719703
 H     12.7849229071     -0.4748193542     -6.8662752336
 H     11.3922388448     -1.5829079932     -6.6154512932
 H     12.1268456701     -1.4792221800     -8.2996098065
*

%EPRNMR
        GTENSOR   TRUE
        NUCLEI    = ALL H {AISO, ADIP, AORB}
        NUCLEI    = ALL C {AISO, ADIP, AORB}
END

