!B3LYP EPR-III Autoaux
!PAL4

* xyz 0 2
 C      2.2087968987    -12.3416952268     -9.8094162517
 H      3.0427448219    -11.9965827396     -9.1302851960
 H      1.7751670627    -11.8164423140    -10.5459744818
 H      2.0583868945    -13.3995210271     -9.8119317605
*

%EPRNMR
        GTENSOR   TRUE
        NUCLEI    = ALL H {AISO, ADIP, AORB}
        NUCLEI    = ALL C {AISO, ADIP, AORB}
END

