!B3LYP EPR-III Autoaux
!PAL4

* xyz 0 2
 C      9.8973201565     -3.6758472309     -7.8351971016
 H      9.7978248893     -4.1369123963     -8.8288215485
 H     10.4358780606     -2.8337614942     -7.6854923133
 H      9.2177190533     -3.9762898371     -7.0942645680
*

%EPRNMR
        GTENSOR   TRUE
        NUCLEI    = ALL H {AISO, ADIP, AORB}
        NUCLEI    = ALL C {AISO, ADIP, AORB}
END

