!B3LYP EPR-III Autoaux
!PAL4

* xyz 0 2
 C    -63.4764717264    -86.4135346866    -26.5088985953
 H    -62.5804433310    -87.0134136791    -26.5741353186
 H    -63.4974028561    -85.3881251028    -26.3735936310
 H    -64.5394654985    -86.7911516444    -26.5489783337
*

%EPRNMR
        GTENSOR   TRUE
        NUCLEI    = ALL H {AISO, ADIP, AORB}
        NUCLEI    = ALL C {AISO, ADIP, AORB}
END

