!B3LYP EPR-III Autoaux
!PAL4

* xyz 0 2
 C     -0.1673689079    -15.1286424289    -10.4502780930
 H      0.6515648173    -14.4965727365    -10.5831936410
 H     -0.7272579474    -14.8613616538     -9.5039358581
 H     -0.6633137362    -15.8443817024    -11.0998097916
*

%EPRNMR
        GTENSOR   TRUE
        NUCLEI    = ALL H {AISO, ADIP, AORB}
        NUCLEI    = ALL C {AISO, ADIP, AORB}
END

