!B3LYP EPR-III Autoaux
!PAL4

* xyz 0 2
 C    -21.2991433245    -38.9723646164    -15.8986715404
 H    -21.3903936673    -40.1092850663    -15.7190829772
 H    -20.3266664797    -38.6766832314    -16.1889271886
 H    -22.0527110146    -38.2349952674    -15.7016006193
*

%EPRNMR
        GTENSOR   TRUE
        NUCLEI    = ALL H {AISO, ADIP, AORB}
        NUCLEI    = ALL C {AISO, ADIP, AORB}
END

