!B3LYP EPR-III Autoaux
!PAL4

* xyz 0 2
 C    -62.3411560472    -85.0628541928    -26.2332512230
 H    -62.2986825408    -86.1563970840    -26.3308448082
 H    -61.3080487997    -84.5240219663    -26.1685202474
 H    -63.2739292083    -84.4272001046    -26.2181842266
*

%EPRNMR
        GTENSOR   TRUE
        NUCLEI    = ALL H {AISO, ADIP, AORB}
        NUCLEI    = ALL C {AISO, ADIP, AORB}
END

