!B3LYP EPR-III Autoaux
!PAL4

* xyz 0 2
 C    -62.7717315388    -85.5436238958    -26.3334124178
 H    -62.3622751152    -86.5272300523    -26.4204312407
 H    -61.9433326899    -84.8104585246    -26.2314448455
 H    -63.7773855839    -85.4256020198    -26.3544819451
*

%EPRNMR
        GTENSOR   TRUE
        NUCLEI    = ALL H {AISO, ADIP, AORB}
        NUCLEI    = ALL C {AISO, ADIP, AORB}
END

