!B3LYP EPR-III Autoaux
!PAL4

* xyz 0 2
 C    -64.9436272648    -88.1239321155    -26.8435194950
 H    -64.0854566738    -87.4766915348    -26.7834891905
 H    -65.9110691339    -87.5665067432    -26.7850862801
 H    -64.7095350068    -89.1116569042    -26.9007228777
*

%EPRNMR
        GTENSOR   TRUE
        NUCLEI    = ALL H {AISO, ADIP, AORB}
        NUCLEI    = ALL C {AISO, ADIP, AORB}
END

