!B3LYP EPR-III Autoaux
!PAL4

* xyz 0 2
 C    -87.5266953418   -115.6594388305    -32.1366567019
 H    -86.9712635526   -114.6914626082    -32.0243614797
 H    -88.6461144255   -115.6312720934    -32.1803493562
 H    -86.8651039608   -116.4880213088    -32.1687301739
*

%EPRNMR
        GTENSOR   TRUE
        NUCLEI    = ALL H {AISO, ADIP, AORB}
        NUCLEI    = ALL C {AISO, ADIP, AORB}
END

