!B3LYP EPR-III Autoaux
!PAL4

* xyz 0 2
 C    -35.2283325935    -54.6956053928    -19.4350617332
 H    -34.2950585533    -55.2248554430    -19.3845878902
 H    -35.3301767908    -53.6468053008    -19.3761079378
 H    -36.1560514113    -55.1481491511    -19.6190934111
*

%EPRNMR
        GTENSOR   TRUE
        NUCLEI    = ALL H {AISO, ADIP, AORB}
        NUCLEI    = ALL C {AISO, ADIP, AORB}
END

