!B3LYP EPR-III Autoaux
!PAL4

* xyz 0 2
 C    -81.7235574030   -108.4828120019    -30.7930460877
 H    -82.6214930960   -107.8801406179    -30.7551766744
 H    -81.8276820540   -109.5387415862    -30.8825050057
 H    -80.6012913747   -108.1574586807    -30.7136957629
*

%EPRNMR
        GTENSOR   TRUE
        NUCLEI    = ALL H {AISO, ADIP, AORB}
        NUCLEI    = ALL C {AISO, ADIP, AORB}
END

