!B3LYP EPR-III Autoaux
!PAL4

* xyz 0 2
 C    -83.6294059975   -110.8409652404    -31.2574430822
 H    -84.2133526617   -111.7770127735    -31.3510865013
 H    -82.4961104795   -110.9179962407    -31.2071809174
 H    -84.0558188996   -109.8443624719    -31.1874506572
*

%EPRNMR
        GTENSOR   TRUE
        NUCLEI    = ALL H {AISO, ADIP, AORB}
        NUCLEI    = ALL C {AISO, ADIP, AORB}
END

