!B3LYP EPR-III Autoaux
!PAL4

* xyz 0 2
 C    -80.6953343207   -107.2280306869    -30.5459363580
 H    -80.7035256302   -106.1172554173    -30.4309977334
 H    -81.6434899631   -107.9295183979    -30.6384021126
 H    -79.7520457467   -107.7610563496    -30.5392216676
*

%EPRNMR
        GTENSOR   TRUE
        NUCLEI    = ALL H {AISO, ADIP, AORB}
        NUCLEI    = ALL C {AISO, ADIP, AORB}
END

