!B3LYP EPR-III Autoaux
!PAL4

* xyz 0 2
 C     -8.4989003600    -24.5576467819    -12.5906829135
 H     -8.3248811625    -25.6611358034    -12.9393426048
 H     -7.8469059654    -23.8669578187    -13.0702038082
 H     -9.0573839118    -24.1480339018    -11.7420894783
*

%EPRNMR
        GTENSOR   TRUE
        NUCLEI    = ALL H {AISO, ADIP, AORB}
        NUCLEI    = ALL C {AISO, ADIP, AORB}
END

