!B3LYP EPR-III Autoaux
!PAL4

* xyz 0 2
 C    -90.8268870161   -119.7844105766    -32.8148031785
 H    -91.5962584384   -120.4769023111    -32.9008769647
 H    -89.8385328531   -120.1574388981    -32.7939642807
 H    -90.9111237099   -118.6487480546    -32.7215226255
*

%EPRNMR
        GTENSOR   TRUE
        NUCLEI    = ALL H {AISO, ADIP, AORB}
        NUCLEI    = ALL C {AISO, ADIP, AORB}
END

