!B3LYP EPR-III Autoaux
!PAL4

* xyz 0 2
 C      6.0902724870     -7.9770963850     -8.7986897772
 H      6.9484254202     -7.2308374896     -8.6097840377
 H      5.2984008340     -8.1091878620     -8.1407159690
 H      6.0150115135     -8.2826632088     -9.8411552057
*

%EPRNMR
        GTENSOR   TRUE
        NUCLEI    = ALL H {AISO, ADIP, AORB}
        NUCLEI    = ALL C {AISO, ADIP, AORB}
END

