!B3LYP EPR-III Autoaux
!PAL4

* xyz 0 2
 C      4.7549904812     -9.4502709664     -9.1690997065
 H      5.2221206241     -9.8091234076    -10.0426194545
 H      5.4613475110     -9.1544304006     -8.3814606483
 H      3.7068539687     -9.5859484078     -8.9372752010
*

%EPRNMR
        GTENSOR   TRUE
        NUCLEI    = ALL H {AISO, ADIP, AORB}
        NUCLEI    = ALL C {AISO, ADIP, AORB}
END

