!B3LYP EPR-III Autoaux
!PAL4

* xyz 0 2
 C      8.4059107392     -5.3517843104     -8.2148103724
 H      9.0276540575     -6.1334644610     -7.9632228382
 H      8.6023062526     -4.6665062970     -9.0744546771
 H      7.6207243781     -5.0581959701     -7.5305289015
*

%EPRNMR
        GTENSOR   TRUE
        NUCLEI    = ALL H {AISO, ADIP, AORB}
        NUCLEI    = ALL C {AISO, ADIP, AORB}
END

