!B3LYP EPR-III Autoaux
!PAL4

* xyz 0 2
 C     -5.5687300433    -21.2596158326    -11.8168348636
 H     -4.7877828737    -21.9397368555    -12.0039396428
 H     -5.6569385686    -20.4055712577    -11.1532465286
 H     -6.3269092779    -21.3992651467    -12.5065101757
*

%EPRNMR
        GTENSOR   TRUE
        NUCLEI    = ALL H {AISO, ADIP, AORB}
        NUCLEI    = ALL C {AISO, ADIP, AORB}
END

