!B3LYP EPR-III Autoaux
!PAL4

* xyz 0 2
 C    -13.6746442146    -30.4252769038    -13.9164394108
 H    -12.9255987818    -29.7273269295    -14.4513708824
 H    -14.6990737613    -30.2389290012    -13.9312565279
 H    -13.1874086233    -31.2766820046    -13.5137305365
*

%EPRNMR
        GTENSOR   TRUE
        NUCLEI    = ALL H {AISO, ADIP, AORB}
        NUCLEI    = ALL C {AISO, ADIP, AORB}
END

