!B3LYP EPR-III Autoaux
!PAL4

* xyz 0 2
 C    -14.0300671225    -30.8429186751    -14.0307922275
 H    -13.7886740547    -29.7496959099    -14.2566865817
 H    -14.9739310104    -31.3397651288    -14.2452084910
 H    -13.3672293259    -31.4529677186    -13.4676511455
*

%EPRNMR
        GTENSOR   TRUE
        NUCLEI    = ALL H {AISO, ADIP, AORB}
        NUCLEI    = ALL C {AISO, ADIP, AORB}
END

