!B3LYP EPR-III Autoaux
!PAL4

* xyz 0 2
 C    -53.1194326254    -74.6583455291    -23.9348265466
 H    -54.2389013734    -74.5699639593    -23.9054338025
 H    -52.5981266812    -75.6724587579    -24.1233879404
 H    -52.3849653562    -73.8377482630    -23.8674798862
*

%EPRNMR
        GTENSOR   TRUE
        NUCLEI    = ALL H {AISO, ADIP, AORB}
        NUCLEI    = ALL C {AISO, ADIP, AORB}
END

