!B3LYP EPR-III Autoaux
!PAL4

* xyz 0 2
 C    -22.5990118833    -40.4435921512    -16.2408094187
 H    -21.5511669563    -40.7872040723    -15.9041109268
 H    -22.6366111162    -39.4350868918    -16.0985922359
 H    -23.4020351541    -41.0747304581    -16.5220063622
*

%EPRNMR
        GTENSOR   TRUE
        NUCLEI    = ALL H {AISO, ADIP, AORB}
        NUCLEI    = ALL C {AISO, ADIP, AORB}
END

