!B3LYP EPR-III Autoaux
!PAL4

* xyz 0 2
 C    -88.4686195141   -116.8239322484    -32.3376262467
 H    -88.8337365916   -115.8345354124    -32.2749814627
 H    -89.1098207844   -117.6479340099    -32.4426347629
 H    -87.4967620796   -117.1432022427    -32.3232657429
*

%EPRNMR
        GTENSOR   TRUE
        NUCLEI    = ALL H {AISO, ADIP, AORB}
        NUCLEI    = ALL C {AISO, ADIP, AORB}
END

