!B3LYP EPR-III Autoaux
!PAL4

* xyz 0 2
 C     -2.7467939485    -18.0450648205    -11.1115149655
 H     -1.6940987746    -18.1295094119    -11.1381748152
 H     -3.3721824628    -17.2032703948    -11.6671693594
 H     -3.1645322197    -18.7093367879    -10.3370731184
*

%EPRNMR
        GTENSOR   TRUE
        NUCLEI    = ALL H {AISO, ADIP, AORB}
        NUCLEI    = ALL C {AISO, ADIP, AORB}
END

