!B3LYP EPR-III Autoaux
!PAL4

* xyz 0 2
 C    -42.2143482680    -62.5128232902    -21.2105813261
 H    -41.2656970185    -62.9311444079    -21.2359035836
 H    -42.4756377692    -61.4706276701    -21.0718640495
 H    -43.0293516665    -63.1542493232    -21.3683195884
*

%EPRNMR
        GTENSOR   TRUE
        NUCLEI    = ALL H {AISO, ADIP, AORB}
        NUCLEI    = ALL C {AISO, ADIP, AORB}
END

