!B3LYP EPR-III Autoaux
!PAL4

* xyz 0 2
 C    -76.3667730440   -101.9506938224    -29.4949033194
 H    -76.9528709120   -102.8483218442    -29.6073515519
 H    -75.3509784021   -102.0272203115    -29.4775885045
 H    -77.0509382889   -101.1156423159    -29.4705675630
*

%EPRNMR
        GTENSOR   TRUE
        NUCLEI    = ALL H {AISO, ADIP, AORB}
        NUCLEI    = ALL C {AISO, ADIP, AORB}
END

