!B3LYP EPR-III Autoaux
!PAL4

* xyz 0 2
 C    -79.8378605341   -106.1839475343    -30.3315994086
 H    -79.1738987258   -105.2964242358    -30.2428578620
 H    -80.8913509945   -106.0107551132    -30.3718691795
 H    -79.4949110321   -107.3007519013    -30.4177596542
*

%EPRNMR
        GTENSOR   TRUE
        NUCLEI    = ALL H {AISO, ADIP, AORB}
        NUCLEI    = ALL C {AISO, ADIP, AORB}
END

