!B3LYP EPR-III Autoaux
!PAL4

* xyz 0 2
 C    -17.9196078462    -35.1759238029    -15.0134063721
 H    -16.9123881308    -34.6458481324    -15.2008790629
 H    -18.7144758795    -34.8063876333    -14.4707752426
 H    -17.9275309383    -36.0826590622    -15.5043291594
*

%EPRNMR
        GTENSOR   TRUE
        NUCLEI    = ALL H {AISO, ADIP, AORB}
        NUCLEI    = ALL C {AISO, ADIP, AORB}
END

