!B3LYP EPR-III Autoaux
!PAL4

* xyz 0 2
 C    -60.6059475357    -83.0573428252    -25.8311731696
 H    -61.6944558881    -83.0755088191    -25.7841500567
 H    -60.0188431832    -83.9743192569    -25.9307805812
 H    -60.1409629260    -82.0571761086    -25.7244529686
*

%EPRNMR
        GTENSOR   TRUE
        NUCLEI    = ALL H {AISO, ADIP, AORB}
        NUCLEI    = ALL C {AISO, ADIP, AORB}
END

