!B3LYP EPR-III Autoaux
!PAL4

* xyz 0 2
 C    -65.9007216457    -89.2556532994    -27.0682667900
 H    -65.8337120358    -88.1745574167    -26.9681292186
 H    -66.8783452385    -89.6005818201    -27.1196499560
 H    -64.9826743054    -89.8482364044    -27.0815641176
*

%EPRNMR
        GTENSOR   TRUE
        NUCLEI    = ALL H {AISO, ADIP, AORB}
        NUCLEI    = ALL C {AISO, ADIP, AORB}
END

