!B3LYP EPR-III Autoaux
!PAL4

* xyz 0 2
 C    -70.1170718223    -94.3364745952    -28.0251970723
 H    -69.6567726062    -95.3215009571    -28.0949052844
 H    -69.4589540709    -93.5422421724    -27.9149090362
 H    -71.2345851680    -94.1713771249    -28.0376761460
*

%EPRNMR
        GTENSOR   TRUE
        NUCLEI    = ALL H {AISO, ADIP, AORB}
        NUCLEI    = ALL C {AISO, ADIP, AORB}
END

