!B3LYP EPR-III Autoaux
!PAL4

* xyz 0 2
 C    -72.2248566576    -96.9110361435    -28.5100578357
 H    -71.3723865057    -96.2067254108    -28.4492830431
 H    -73.2064732320    -96.4724257520    -28.5104528109
 H    -72.1721421118    -98.0201958223    -28.6093253295
*

%EPRNMR
        GTENSOR   TRUE
        NUCLEI    = ALL H {AISO, ADIP, AORB}
        NUCLEI    = ALL C {AISO, ADIP, AORB}
END

