!B3LYP EPR-III Autoaux
!PAL4

* xyz 0 2
 C      5.1418792180     -9.0543016900     -9.0642338979
 H      4.7033923651     -9.7027876061     -9.8773617246
 H      5.6558733389     -9.4011468056     -8.2330223799
 H      4.8174868442     -8.0181318088     -9.0836886468
*

%EPRNMR
        GTENSOR   TRUE
        NUCLEI    = ALL H {AISO, ADIP, AORB}
        NUCLEI    = ALL C {AISO, ADIP, AORB}
END

