!B3LYP EPR-III Autoaux
!PAL4

* xyz 0 2
 C    -11.3196775250    -27.7797320629    -13.3275294286
 H    -12.2822815300    -27.9200133071    -13.0868334576
 H    -10.4313914459    -28.3287512000    -12.9628371733
 H    -11.1400309763    -26.8488930576    -13.8799043325
*

%EPRNMR
        GTENSOR   TRUE
        NUCLEI    = ALL H {AISO, ADIP, AORB}
        NUCLEI    = ALL C {AISO, ADIP, AORB}
END

