!B3LYP EPR-III Autoaux
!PAL4

* xyz 0 2
 C    -68.7295083114    -92.6512436750    -27.7118517529
 H    -69.5598426107    -93.3415992189    -27.7641863474
 H    -67.5715068929    -92.9030202602    -27.7017667071
 H    -68.9689699470    -91.6329269928    -27.6249740420
*

%EPRNMR
        GTENSOR   TRUE
        NUCLEI    = ALL H {AISO, ADIP, AORB}
        NUCLEI    = ALL C {AISO, ADIP, AORB}
END

