!B3LYP EPR-III Autoaux
!PAL4

* xyz 0 2
 C    -30.9144697016    -49.8527433640    -18.3487652124
 H    -31.0725247398    -48.8646476472    -18.4559850282
 H    -31.8671527512    -50.4510018597    -18.2345764784
 H    -29.9266544741    -50.1867164320    -18.4553276988
*

%EPRNMR
        GTENSOR   TRUE
        NUCLEI    = ALL H {AISO, ADIP, AORB}
        NUCLEI    = ALL C {AISO, ADIP, AORB}
END

