!B3LYP EPR-III Autoaux
!PAL4

* xyz 0 2
 C      5.4987458143     -8.6035290010     -8.9615845908
 H      4.4869942202     -8.4460164061     -9.2474574314
 H      5.7057617436     -9.3805217415     -8.1561103306
 H      6.3758593847     -8.2492642293     -9.5356642739
*

%EPRNMR
        GTENSOR   TRUE
        NUCLEI    = ALL H {AISO, ADIP, AORB}
        NUCLEI    = ALL C {AISO, ADIP, AORB}
END

