!B3LYP EPR-III Autoaux
!PAL4

* xyz 0 2
 C    -20.6498480634    -38.2461573075    -15.7218412853
 H    -21.5258005247    -39.0086507056    -15.8072577133
 H    -19.6836376986    -38.5743761086    -16.0959513572
 H    -20.6577330677    -37.2308689146    -15.3205861691
*

%EPRNMR
        GTENSOR   TRUE
        NUCLEI    = ALL H {AISO, ADIP, AORB}
        NUCLEI    = ALL C {AISO, ADIP, AORB}
END

