!B3LYP EPR-III Autoaux
!PAL4

* xyz 0 2
 C    -84.5473418788   -111.9867638964    -31.4660867492
 H    -84.3314091964   -113.0207700558    -31.5567614906
 H    -83.7811813046   -111.2051774195    -31.3743291147
 H    -85.4207808727   -111.5331932673    -31.4750096158
*

%EPRNMR
        GTENSOR   TRUE
        NUCLEI    = ALL H {AISO, ADIP, AORB}
        NUCLEI    = ALL C {AISO, ADIP, AORB}
END

