!B3LYP EPR-III Autoaux
!PAL4

* xyz 0 2
 C    -68.0184011315    -91.7918530031    -27.5512934907
 H    -69.1181976091    -91.9040483347    -27.5530722172
 H    -67.2803360427    -92.6707902462    -27.6121304962
 H    -67.6563784018    -90.7852875383    -27.4419269214
*

%EPRNMR
        GTENSOR   TRUE
        NUCLEI    = ALL H {AISO, ADIP, AORB}
        NUCLEI    = ALL C {AISO, ADIP, AORB}
END

