!B3LYP EPR-III Autoaux
!PAL4

* xyz 0 2
 C    -20.8257767768    -38.4652122115    -15.7867132344
 H    -21.5729019812    -39.2300901350    -15.6811286086
 H    -19.8204800353    -38.5512908176    -16.1177839682
 H    -21.1547048502    -37.5471943084    -15.3684850230
*

%EPRNMR
        GTENSOR   TRUE
        NUCLEI    = ALL H {AISO, ADIP, AORB}
        NUCLEI    = ALL C {AISO, ADIP, AORB}
END

