!B3LYP EPR-III Autoaux
!PAL4

* xyz 0 2
 C    -48.4025813596    -69.3955711278    -22.7518211802
 H    -47.8193638909    -70.3405093794    -22.8017269452
 H    -47.6459845412    -68.5222642746    -22.7023517529
 H    -49.5081699835    -69.3830698402    -22.8112291441
*

%EPRNMR
        GTENSOR   TRUE
        NUCLEI    = ALL H {AISO, ADIP, AORB}
        NUCLEI    = ALL C {AISO, ADIP, AORB}
END

