!B3LYP EPR-III Autoaux
!PAL4

* xyz 0 2
 C    -39.2000404032    -59.1425998978    -20.4376884940
 H    -40.2506206450    -59.1123587793    -20.4663626749
 H    -38.6261279771    -60.0160062569    -20.6465196637
 H    -38.7334932587    -58.1989182413    -20.2759888777
*

%EPRNMR
        GTENSOR   TRUE
        NUCLEI    = ALL H {AISO, ADIP, AORB}
        NUCLEI    = ALL C {AISO, ADIP, AORB}
END

