!B3LYP EPR-III Autoaux
!PAL4

* xyz 0 2
 C    -75.9125173397   -101.3767762600    -29.3908056228
 H    -76.7435786868   -102.0493792180    -29.4485014778
 H    -74.9337052159   -101.9383895153    -29.3910531976
 H    -76.1742003838   -100.3809579161    -29.3057364229
*

%EPRNMR
        GTENSOR   TRUE
        NUCLEI    = ALL H {AISO, ADIP, AORB}
        NUCLEI    = ALL C {AISO, ADIP, AORB}
END

