!B3LYP EPR-III Autoaux
!PAL4

* xyz 0 2
 C    -35.5964910898    -55.0883216982    -19.5387524964
 H    -34.5094580061    -55.3955518010    -19.4679133032
 H    -36.0864972796    -54.2232945147    -19.3753706827
 H    -36.3066083213    -55.8941703101    -19.6899246674
*

%EPRNMR
        GTENSOR   TRUE
        NUCLEI    = ALL H {AISO, ADIP, AORB}
        NUCLEI    = ALL C {AISO, ADIP, AORB}
END

