!B3LYP EPR-III Autoaux
!PAL4

* xyz 0 2
 C    -43.0932147899    -63.5038759410    -21.4433387763
 H    -42.1353227838    -62.9701474969    -21.4069768500
 H    -44.0523690520    -62.8439209855    -21.2031019417
 H    -43.2162084313    -64.5818128693    -21.5799862355
*

%EPRNMR
        GTENSOR   TRUE
        NUCLEI    = ALL H {AISO, ADIP, AORB}
        NUCLEI    = ALL C {AISO, ADIP, AORB}
END

