!B3LYP EPR-III Autoaux
!PAL4

* xyz 0 2
 C    -80.5530085311   -107.0723718503    -30.5112568538
 H    -80.5076537287   -105.9733123463    -30.4040312273
 H    -81.6017568176   -107.4664376325    -30.5907326669
 H    -79.6078348700   -107.6657718155    -30.5185588788
*

%EPRNMR
        GTENSOR   TRUE
        NUCLEI    = ALL H {AISO, ADIP, AORB}
        NUCLEI    = ALL C {AISO, ADIP, AORB}
END

