!B3LYP EPR-III Autoaux
!PAL4

* xyz 0 2
 C    -26.6662470885    -45.0746648174    -17.2725849830
 H    -27.6093686098    -45.6534336771    -17.3391085853
 H    -25.6856525290    -45.3378371899    -17.5510616060
 H    -26.8116242175    -44.0417116183    -16.9982142897
*

%EPRNMR
        GTENSOR   TRUE
        NUCLEI    = ALL H {AISO, ADIP, AORB}
        NUCLEI    = ALL C {AISO, ADIP, AORB}
END

