!B3LYP EPR-III Autoaux
!PAL4

* xyz 0 2
 C    -50.0017296189    -71.2023212004    -23.1603497718
 H    -48.9408186945    -70.9180634306    -23.2075379761
 H    -50.9153561009    -70.4855036606    -22.9954179569
 H    -50.2066466057    -72.2563343827    -23.2790101680
*

%EPRNMR
        GTENSOR   TRUE
        NUCLEI    = ALL H {AISO, ADIP, AORB}
        NUCLEI    = ALL C {AISO, ADIP, AORB}
END

