!B3LYP EPR-III Autoaux
!PAL4

* xyz 0 2
 C    -44.6695315337    -65.2318751296    -21.8305316258
 H    -44.9192634453    -64.2123708886    -21.8153214853
 H    -45.3070697230    -66.0837245452    -21.8348145004
 H    -43.6683476666    -65.5407147829    -21.8010625805
*

%EPRNMR
        GTENSOR   TRUE
        NUCLEI    = ALL H {AISO, ADIP, AORB}
        NUCLEI    = ALL C {AISO, ADIP, AORB}
END

