!B3LYP EPR-III Autoaux
!PAL4

* xyz 0 2
 C    -14.2060975377    -31.0405818750    -14.0760641885
 H    -14.1995320901    -29.9460779163    -14.1213945483
 H    -14.9500698251    -31.6709250634    -14.4507524586
 H    -13.3810366307    -31.3962925015    -13.5011599765
*

%EPRNMR
        GTENSOR   TRUE
        NUCLEI    = ALL H {AISO, ADIP, AORB}
        NUCLEI    = ALL C {AISO, ADIP, AORB}
END

