!B3LYP EPR-III Autoaux
!PAL4

* xyz 0 2
 C     -7.4190468052    -23.3613972877    -12.3290845083
 H     -8.2858824470    -23.0885505575    -12.8203161855
 H     -7.3175257126    -24.5338347090    -12.3248456784
 H     -6.8772023139    -22.6029749149    -11.6448104971
*

%EPRNMR
        GTENSOR   TRUE
        NUCLEI    = ALL H {AISO, ADIP, AORB}
        NUCLEI    = ALL C {AISO, ADIP, AORB}
END

