!B3LYP EPR-III Autoaux
!PAL4

* xyz 0 2
 C    -59.7248484778    -82.0675858403    -25.6049594082
 H    -60.5276060537    -81.3213508724    -25.5483700909
 H    -59.9673137914    -83.1687399407    -25.7625640453
 H    -58.7503150679    -81.6181245764    -25.5682111710
*

%EPRNMR
        GTENSOR   TRUE
        NUCLEI    = ALL H {AISO, ADIP, AORB}
        NUCLEI    = ALL C {AISO, ADIP, AORB}
END

