!B3LYP EPR-III Autoaux
!PAL4

* xyz 0 2
 C      0.0498432655    -14.8360398215    -10.3951721984
 H      1.1655611669    -15.0561263011    -10.4016358193
 H     -0.2283945218    -14.4016363851     -9.4085776931
 H     -0.7432066789    -15.1944866655    -11.1114727393
*

%EPRNMR
        GTENSOR   TRUE
        NUCLEI    = ALL H {AISO, ADIP, AORB}
        NUCLEI    = ALL C {AISO, ADIP, AORB}
END

