!B3LYP EPR-III Autoaux
!PAL4

* xyz 0 2
 C      8.9029043057     -4.7919075524     -8.0749697019
 H      7.7768205421     -4.7090752360     -8.2549057550
 H      9.4692535502     -4.9881879426     -8.9661623277
 H      9.4113948113     -4.5140710484     -7.1444151398
*

%EPRNMR
        GTENSOR   TRUE
        NUCLEI    = ALL H {AISO, ADIP, AORB}
        NUCLEI    = ALL C {AISO, ADIP, AORB}
END

